@<TRIPOS>MOLECULE
O44
   65    69     1     0     0
SMALL
bcc


@<TRIPOS>ATOM
      1 OBJ          0.0000     0.0000     0.0000 o          1 O44      -0.577300
      2 SBH          1.4210     0.0000     0.0000 sy         1 O44       1.189000
      3 OBI          2.1980     0.0000     1.1900 o          1 O44      -0.577300
      4 CBE          1.9190    -1.4190    -0.9190 ca         1 O44      -0.139500
      5 CBD          1.2730    -2.6260    -0.7300 ca         1 O44       0.008500
      6 CBC          1.6640    -3.7390    -1.4510 ca         1 O44      -0.133500
      7 CBF          2.9520    -1.3220    -1.8320 ca         1 O44       0.008500
      8 CBG          3.3420    -2.4350    -2.5530 ca         1 O44      -0.133500
      9 CBB          2.7000    -3.6440    -2.3610 ca         1 O44      -0.026300
     10 CBA          3.1260    -4.8570    -3.1470 c3         1 O44       0.174100
     11 NAX          4.1740    -5.5760    -2.4090 n3         1 O44      -0.491600
     12 CAY          4.4470    -6.8830    -3.0220 c3         1 O44       0.110800
     13 CAZ          5.4840    -7.6310    -2.1810 c3         1 O44       0.064300
     14 CAW          5.4010    -4.7720    -2.3210 c3         1 O44       0.110800
     15 CAV          6.4380    -5.5210    -1.4790 c3         1 O44       0.064300
     16 NAA          6.7110    -6.8280    -2.0920 nh         1 O44      -0.423300
     17 C2           7.6980    -7.5050    -1.3960 ca         1 O44       0.741900
     18 N3           8.0750    -8.7040    -1.8160 nb         1 O44      -0.669000
     19 N1           8.2430    -6.9350    -0.3350 nb         1 O44      -0.705000
     20 C6           9.1970    -7.5550     0.3610 ca         1 O44       0.410800
     21 CAQ          9.8010    -6.9080     1.5520 c          1 O44       0.475600
     22 NAR          9.3870    -5.6840     1.9370 ns         1 O44      -0.181900
     23 CAS          9.9840    -5.0450     3.1120 c3         1 O44       0.150100
     24 CAT          9.3660    -3.7260     3.3210 c1         1 O44      -0.161100
     25 CBL          8.8900    -2.6640     3.4790 c1         1 O44      -0.075500
     26 OAU         10.6690    -7.4810     2.1800 o          1 O44      -0.656100
     27 C5           9.6160    -8.8170    -0.0440 ca         1 O44      -0.399600
     28 C4           9.0180    -9.3840    -1.1760 ca         1 O44       0.535200
     29 NAH          9.4060   -10.6380    -1.6220 nu         1 O44      -0.261300
     30 CAI          8.7350   -11.2380    -2.6840 cc         1 O44      -0.134700
     31 CAJ          7.7690   -10.6630    -3.4540 cd         1 O44      -0.393300
     32 NAP          8.9280   -12.5000    -3.1460 na         1 O44       0.375400
     33 NAO          8.0520   -12.7020    -4.2210 nc         1 O44      -0.686800
     34 CAK          7.3610   -11.6050    -4.4030 cd         1 O44       0.416600
     35 CAL          6.3070   -11.3930    -5.4580 cx         1 O44      -0.115000
     36 CAN          6.7390   -10.7300    -6.7680 cx         1 O44      -0.096400
     37 CAM          5.8900    -9.9530    -5.7610 cx         1 O44      -0.096400
     38 H3           0.6820    -2.7280     0.1720 ha         1 O44       0.120000
     39 H4           1.5490    -4.8140    -1.3700 ha         1 O44       0.124000
     40 H5           3.6150    -0.5650    -2.2330 ha         1 O44       0.120000
     41 H6           4.2750    -2.3520    -3.0980 ha         1 O44       0.124000
     42 H7           2.3380    -5.5610    -3.3850 h1         1 O44       0.033700
     43 H8           3.8750    -4.7340    -3.9200 h1         1 O44       0.033700
     44 H10          3.6430    -7.5650    -3.2710 h1         1 O44       0.028950
     45 H11          4.9610    -6.7610    -3.9680 h1         1 O44       0.028950
     46 H12          4.7450    -7.8670    -1.4250 h1         1 O44       0.051950
     47 H13          6.0680    -8.4470    -2.5900 h1         1 O44       0.051950
     48 H14          5.9920    -4.9620    -3.2080 h1         1 O44       0.028950
     49 H15          5.8270    -3.8420    -1.9650 h1         1 O44       0.028950
     50 H16          7.4720    -5.2120    -1.5690 h1         1 O44       0.051950
     51 H17          6.1200    -5.1510    -0.5120 h1         1 O44       0.051950
     52 H18          8.6720    -5.2260     1.4080 hn         1 O44       0.196500
     53 H19          9.8500    -5.8810     3.7890 h1         1 O44       0.038200
     54 H20         11.0340    -5.2690     2.9680 h1         1 O44       0.038200
     55 H21          8.5030    -1.7420     3.8950 ha         1 O44       0.143500
     56 H22         10.4490    -9.0890     0.5920 ha         1 O44       0.172000
     57 H23         10.2100   -10.9040    -1.0870 hn         1 O44       0.295800
     58 H24          7.3760    -9.7880    -2.9510 ha         1 O44       0.213000
     59 H25          9.4470   -13.3520    -3.0700 hn         1 O44       0.173700
     60 H26          5.7400   -12.3150    -5.4980 hc         1 O44       0.074700
     61 H27          7.6600   -10.2980    -6.3950 hc         1 O44       0.058200
     62 H28          6.5140   -11.0160    -7.7880 hc         1 O44       0.058200
     63 H29          4.9630    -9.4430    -5.5240 hc         1 O44       0.058200
     64 H30          6.7930    -9.3660    -5.6480 hc         1 O44       0.058200
     65 F1           1.8750     1.2960    -0.8400 f          1 O44      -0.154900
@<TRIPOS>BOND
     1     1     2 2   
     2     2     3 2   
     3     2     4 1   
     4     2    65 1   
     5     4     5 ar  
     6     4     7 ar  
     7     5     6 ar  
     8     5    38 1   
     9     6     9 ar  
    10     6    39 1   
    11     7     8 ar  
    12     7    40 1   
    13     8     9 ar  
    14     8    41 1   
    15     9    10 1   
    16    10    11 1   
    17    10    42 1   
    18    10    43 1   
    19    11    12 1   
    20    11    14 1   
    21    12    13 1   
    22    12    44 1   
    23    12    45 1   
    24    13    16 1   
    25    13    46 1   
    26    13    47 1   
    27    14    15 1   
    28    14    48 1   
    29    14    49 1   
    30    15    16 1   
    31    15    50 1   
    32    15    51 1   
    33    16    17 1   
    34    17    18 ar  
    35    17    19 ar  
    36    18    28 ar  
    37    19    20 ar  
    38    20    21 1   
    39    20    27 ar  
    40    21    22 1   
    41    21    26 2   
    42    22    23 1   
    43    22    52 1   
    44    23    24 1   
    45    23    53 1   
    46    23    54 1   
    47    24    25 3   
    48    25    55 1   
    49    27    28 ar  
    50    27    56 1   
    51    28    29 1   
    52    29    30 1   
    53    29    57 1   
    54    30    31 2   
    55    30    32 1   
    56    31    34 1   
    57    31    58 1   
    58    32    33 1   
    59    32    59 1   
    60    33    34 2   
    61    34    35 1   
    62    35    36 1   
    63    35    37 1   
    64    35    60 1   
    65    36    37 1   
    66    36    61 1   
    67    36    62 1   
    68    37    63 1   
    69    37    64 1   
@<TRIPOS>SUBSTRUCTURE
     1 O44         1 TEMP              0 ****  ****    0 ROOT
