@<TRIPOS>MOLECULE
O47
   45    46     1     0     0
SMALL
bcc


@<TRIPOS>ATOM
      1 C1           0.0000     0.0000     0.0000 ca         1 O47      -0.223300
      2 C2           1.3810     0.0000     0.0000 ca         1 O47       0.024000
      3 C3           2.0800     0.0000     1.2090 ca         1 O47      -0.156600
      4 C4           1.3810    -0.0010     2.4150 ca         1 O47      -0.036000
      5 C5          -0.0100    -0.0010     2.4060 cp         1 O47      -0.176500
      6 C6          -0.6970    -0.0010     1.1920 ca         1 O47      -0.012000
      7 C7          -0.7490     0.0060    -1.3070 c3         1 O47       0.642200
      8 F8          -1.5540     1.1480    -1.3780 f          1 O47      -0.205633
      9 F9           0.1620     0.0120    -2.3680 f          1 O47      -0.205633
     10 F10         -1.5530    -1.1360    -1.3900 f          1 O47      -0.205633
     11 N11         -0.1140    -0.0030     4.8470 nb         1 O47      -0.629000
     12 C12         -0.7600    -0.0020     3.6850 cp         1 O47       0.481800
     13 C13         -2.1590    -0.0020     3.6880 ca         1 O47      -0.332600
     14 C14         -2.8170    -0.0030     4.9070 ca         1 O47       0.423600
     15 N15         -2.1090    -0.0030     6.0240 nb         1 O47      -0.592000
     16 C16         -0.7830    -0.0030     5.9920 ca         1 O47       0.513700
     17 C17         -4.3230    -0.0020     4.9590 c3         1 O47      -0.074700
     18 C18         -4.8040    -1.1840     5.8040 c3         1 O47      -0.026400
     19 C19         -6.3330    -1.1840     5.8580 c3         1 O47       0.006900
     20 C20          3.5590    -0.0000     1.2090 c          1 O47       0.605700
     21 N21          4.2330     0.7390     2.1140 n          1 O47      -0.154800
     22 O22          4.1670    -0.6660     0.3940 o          1 O47      -0.632100
     23 C23          5.6940     0.8230     2.0470 c3         1 O47       0.078800
     24 C24          3.5040     1.4560     3.1620 c3         1 O47       0.078800
     25 C25         -0.0310    -0.0030     7.2660 ce         1 O47       0.342200
     26 N26          1.2600    -0.0030     7.2540 n2         1 O47      -0.607100
     27 H2           1.9220     0.0010    -0.9380 ha         1 O47       0.139000
     28 H4           1.9190    -0.0010     3.3550 ha         1 O47       0.146000
     29 H6          -1.7800    -0.0010     1.1840 ha         1 O47       0.120000
     30 H13         -2.7150    -0.0020     2.7580 ha         1 O47       0.136000
     31 H17         -4.6680     0.9240     5.4040 hc         1 O47       0.028200
     32 H17A        -4.7190    -0.0910     3.9550 hc         1 O47       0.028200
     33 H18         -4.4580    -2.1100     5.3610 hc         1 O47       0.022700
     34 H18A        -4.4070    -1.0950     6.8090 hc         1 O47       0.022700
     35 H19         -6.6790    -0.2560     6.2960 hc         1 O47       0.002367
     36 H19A        -6.7290    -1.2790     4.8540 hc         1 O47       0.002367
     37 H19B        -6.6730    -2.0170     6.4610 hc         1 O47       0.002367
     38 H23          5.9880     1.2570     1.1000 h1         1 O47       0.015200
     39 H23A         6.0570     1.4440     2.8570 h1         1 O47       0.015200
     40 H23B         6.1170    -0.1710     2.1360 h1         1 O47       0.015200
     41 H24          4.1110     2.2760     3.5270 h1         1 O47       0.015200
     42 H24A         3.2850     0.7780     3.9780 h1         1 O47       0.015200
     43 H24B         2.5780     1.8460     2.7560 h1         1 O47       0.015200
     44 H25         -0.5630    -0.0040     8.2090 h4         1 O47       0.004800
     45 HN26         1.7530    -0.0020     6.3830 hn         1 O47       0.327400
@<TRIPOS>BOND
     1     1     2 ar  
     2     1     6 ar  
     3     1     7 1   
     4     2     3 ar  
     5     2    27 1   
     6     3     4 ar  
     7     3    20 1   
     8     4     5 ar  
     9     4    28 1   
    10     5     6 ar  
    11     5    12 1   
    12     6    29 1   
    13     7     8 1   
    14     7     9 1   
    15     7    10 1   
    16    11    12 ar  
    17    11    16 ar  
    18    12    13 ar  
    19    13    14 ar  
    20    13    30 1   
    21    14    15 ar  
    22    14    17 1   
    23    15    16 ar  
    24    16    25 1   
    25    17    18 1   
    26    17    31 1   
    27    17    32 1   
    28    18    19 1   
    29    18    33 1   
    30    18    34 1   
    31    19    35 1   
    32    19    36 1   
    33    19    37 1   
    34    20    21 1   
    35    20    22 2   
    36    21    23 1   
    37    21    24 1   
    38    23    38 1   
    39    23    39 1   
    40    23    40 1   
    41    24    41 1   
    42    24    42 1   
    43    24    43 1   
    44    25    26 2   
    45    25    44 1   
    46    26    45 1   
@<TRIPOS>SUBSTRUCTURE
     1 O47         1 TEMP              0 ****  ****    0 ROOT
