@<TRIPOS>MOLECULE
molecule
   39    38     1     0     0
SMALL
bcc


@<TRIPOS>ATOM
      1 C1           0.0000     0.0000     0.0000 c3         1 O48       0.130400
      2 N1          -2.5150     1.5270    -1.0960 nz         1 O48      -0.833500
      3 O1          -2.4780    -0.8500    -0.4350 o          1 O48      -0.525800
      4 S1          -1.9950    -0.0000    -1.4660 s6         1 O48       1.494400
      5 C2           1.5300     0.0000     0.0000 c3         1 O48      -0.075400
      6 O2          -2.2890    -0.2030    -2.8420 o          1 O48      -0.525800
      7 C3           2.0410     0.0000     1.4410 c3         1 O48      -0.082400
      8 O3          -0.4780    -0.0010    -1.3460 os         1 O48      -0.510500
      9 C4           3.5710     0.0000     1.4410 c3         1 O48      -0.078400
     10 C5           4.0820     0.0000     2.8830 c3         1 O48      -0.081400
     11 C6           5.6120     0.0000     2.8820 c3         1 O48      -0.081400
     12 C7           6.1230     0.0000     4.3240 c3         1 O48      -0.081400
     13 C8           7.6530    -0.0000     4.3230 c3         1 O48      -0.081400
     14 C9           8.1630     0.0000     5.7650 c3         1 O48      -0.083400
     15 C10          9.6940     0.0000     5.7650 c3         1 O48      -0.092100
     16 H1          -0.3610    -0.8840     0.5110 h1         1 O48       0.063700
     17 H1A         -0.3610     0.8850     0.5110 h1         1 O48       0.063700
     18 HN1         -3.3950     1.6970    -1.5420 hn         1 O48       0.497800
     19 HN1A        -2.6220     1.6120    -0.1040 hn         1 O48       0.497800
     20 H2           1.8910     0.8840    -0.5110 hc         1 O48       0.075200
     21 H2A          1.8910    -0.8840    -0.5110 hc         1 O48       0.075200
     22 H3           1.6800    -0.8840     1.9520 hc         1 O48       0.048200
     23 H3A          1.6800     0.8840     1.9520 hc         1 O48       0.048200
     24 H4           3.9320     0.8840     0.9300 hc         1 O48       0.050700
     25 H4A          3.9320    -0.8850     0.9300 hc         1 O48       0.050700
     26 H5           3.7210    -0.8840     3.3940 hc         1 O48       0.044200
     27 H5A          3.7210     0.8850     3.3940 hc         1 O48       0.044200
     28 H6           5.9720    -0.8850     2.3710 hc         1 O48       0.044700
     29 H6A          5.9720     0.8840     2.3710 hc         1 O48       0.044700
     30 H7           5.7620     0.8850     4.8350 hc         1 O48       0.042700
     31 H7A          5.7620    -0.8840     4.8350 hc         1 O48       0.042700
     32 H8           8.0140    -0.8850     3.8120 hc         1 O48       0.043200
     33 H8A          8.0140     0.8840     3.8120 hc         1 O48       0.043200
     34 H9           7.8020     0.8850     6.2760 hc         1 O48       0.041200
     35 H9A          7.8020    -0.8840     6.2760 hc         1 O48       0.041200
     36 H10         10.0550     0.0000     6.7860 hc         1 O48       0.035367
     37 H10A        10.0550    -0.8840     5.2540 hc         1 O48       0.035367
     38 H10B        10.0550     0.8850     5.2540 hc         1 O48       0.035367
     39 H13         -1.8470     2.1960    -1.4230 hn         1 O48       0.497800
@<TRIPOS>BOND
     1     1     5 1
     2     1     8 1
     3     2     4 1
     4     3     4 2
     5     4     6 2
     6     4     8 1
     7     5     7 1
     8     7     9 1
     9     9    10 1
    10    10    11 1
    11    11    12 1
    12    12    13 1
    13    13    14 1
    14    14    15 1
    15     1    16 1
    16     1    17 1
    17     2    18 1
    18     2    19 1
    19     5    20 1
    20     5    21 1
    21     7    22 1
    22     7    23 1
    23     9    24 1
    24     9    25 1
    25    10    26 1
    26    10    27 1
    27    11    28 1
    28    11    29 1
    29    12    30 1
    30    12    31 1
    31    13    32 1
    32    13    33 1
    33    14    34 1
    34    14    35 1
    35    15    36 1
    36    15    37 1
    37    15    38 1
    38    39     2 1
@<TRIPOS>SUBSTRUCTURE
     1 O48         1 TEMP              0 ****  ****    0 ROOT
