@<TRIPOS>MOLECULE
O4B
   42    42     1     0     0
SMALL
bcc


@<TRIPOS>ATOM
      1 CAA         0.0050    0.1070    0.0140 c3        1 O4B      0.128400
      2 OAM         1.4300    0.1070    0.0210 os        1 O4B     -0.427600
      3 CAC         1.9800    0.0530    1.3350 c3        1 O4B      0.128400
      4 CAD         3.4500    0.4430    1.2040 c3        1 O4B      0.128400
      5 OAO         3.5720    1.7480    1.7630 os        1 O4B     -0.427600
      6 CAG         4.7960    2.3900    1.4150 c3        1 O4B      0.128400
      7 CAH         4.6160    3.8700    1.7440 c3        1 O4B      0.128400
      8 OAQ         4.5000    4.5490    0.4960 os        1 O4B     -0.427600
      9 CAK         3.9880    5.8720    0.6290 c3        1 O4B      0.128400
     10 CAL         3.5640    6.3130   -0.7700 c3        1 O4B      0.128400
     11 OAR         2.1390    6.3130   -0.7790 os        1 O4B     -0.427600
     12 CAJ         1.5910    6.3640   -2.0940 c3        1 O4B      0.128400
     13 CAI         0.1200    5.9770   -1.9640 c3        1 O4B      0.128400
     14 OAP        -0.0030    4.6700   -2.5210 os        1 O4B     -0.427600
     15 CAF        -1.2280    4.0300   -2.1710 c3        1 O4B      0.128400
     16 CAE        -1.0510    2.5500   -2.4990 c3        1 O4B      0.128400
     17 OAN        -0.9320    1.8720   -1.2520 os        1 O4B     -0.427600
     18 CAB        -0.4200    0.5480   -1.3850 c3        1 O4B      0.128400
     19 HAA1       -0.3990    0.8110    0.7880 h1        1 O4B      0.043158
     20 HAA2       -0.3570   -0.9340    0.2240 h1        1 O4B      0.043158
     21 HAB1       -1.2360   -0.1160   -1.7750 h1        1 O4B      0.043158
     22 HAB2        0.4550    0.5260   -2.0870 h1        1 O4B      0.043158
     23 HAC1        1.8840   -0.9950    1.7220 h1        1 O4B      0.043158
     24 HAC2        1.4440    0.7610    2.0220 h1        1 O4B      0.043158
     25 HAD1        4.0960   -0.2620    1.7900 h1        1 O4B      0.043158
     26 HAD2        3.7640    0.4380    0.1270 h1        1 O4B      0.043158
     27 HAG1        5.0230    2.2540    0.3250 h1        1 O4B      0.043158
     28 HAG2        5.6220    1.9480    2.0320 h1        1 O4B      0.043158
     29 HAH1        5.5160    4.2640    2.2860 h1        1 O4B      0.043158
     30 HAH2        3.6990    4.0250    2.3710 h1        1 O4B      0.043158
     31 HAK1        4.8020    6.5360    1.0200 h1        1 O4B      0.043158
     32 HAK2        3.1120    5.8940    1.3300 h1        1 O4B      0.043158
     33 HAL1        3.9700    5.6090   -1.5440 h1        1 O4B      0.043158
     34 HAL2        3.9260    7.3540   -0.9800 h1        1 O4B      0.043158
     35 HAJ1        1.6890    7.4110   -2.4850 h1        1 O4B      0.043158
     36 HAJ2        2.1260    5.6530   -2.7780 h1        1 O4B      0.043158
     37 HAI1       -0.5250    6.6820   -2.5520 h1        1 O4B      0.043158
     38 HAI2       -0.1950    5.9840   -0.8870 h1        1 O4B      0.043158
     39 HAF1       -2.0550    4.4730   -2.7870 h1        1 O4B      0.043158
     40 HAF2       -1.4530    4.1670   -1.0800 h1        1 O4B      0.043158
     41 HAE1       -0.1350    2.3940   -3.1280 h1        1 O4B      0.043158
     42 HAE2       -1.9520    2.1570   -3.0390 h1        1 O4B      0.043158
@<TRIPOS>BOND
     1    1    2 1   
     2    1   18 1   
     3    1   19 1   
     4    1   20 1   
     5    2    3 1   
     6    3    4 1   
     7    3   23 1   
     8    3   24 1   
     9    4    5 1   
    10    4   25 1   
    11    4   26 1   
    12    5    6 1   
    13    6    7 1   
    14    6   27 1   
    15    6   28 1   
    16    7    8 1   
    17    7   29 1   
    18    7   30 1   
    19    8    9 1   
    20    9   10 1   
    21    9   31 1   
    22    9   32 1   
    23   10   11 1   
    24   10   33 1   
    25   10   34 1   
    26   11   12 1   
    27   12   13 1   
    28   12   35 1   
    29   12   36 1   
    30   13   14 1   
    31   13   37 1   
    32   13   38 1   
    33   14   15 1   
    34   15   16 1   
    35   15   39 1   
    36   15   40 1   
    37   16   17 1   
    38   16   41 1   
    39   16   42 1   
    40   17   18 1   
    41   18   21 1   
    42   18   22 1   
@<TRIPOS>SUBSTRUCTURE
     1 O4B         1 TEMP              0 ****  ****    0 ROOT
