@<TRIPOS>MOLECULE
molecule
   42    42     1     0     0
SMALL
bcc


@<TRIPOS>ATOM
      1 CAA          0.0000     0.0000     0.0000 c3         1 O4B       0.136983
      2 OAM          1.4290     0.0000     0.0000 os         1 O4B      -0.431267
      3 CAC          2.0100     0.0000     1.3060 c3         1 O4B       0.136983
      4 CAD          3.4710     0.4460     1.2130 c3         1 O4B       0.136983
      5 OAO          3.6260     1.7050     1.8720 os         1 O4B      -0.431267
      6 CAG          4.8350     2.3910     1.5390 c3         1 O4B       0.136983
      7 CAH          4.6550     3.8900     1.7840 c3         1 O4B       0.136983
      8 OAQ          4.6100     4.5760     0.5310 os         1 O4B      -0.431267
      9 CAK          4.0590     5.8920     0.6080 c3         1 O4B       0.136983
     10 CAL          3.5720     6.3240    -0.7770 c3         1 O4B       0.136983
     11 OAR          2.1510     6.4660    -0.7590 os         1 O4B      -0.431267
     12 CAJ          1.5540     6.4910    -2.0570 c3         1 O4B       0.136983
     13 CAI          0.1080     5.9990    -1.9630 c3         1 O4B       0.136983
     14 OAP         -0.0000     4.7170    -2.5850 os         1 O4B      -0.431267
     15 CAF         -1.2320     4.0450    -2.3220 c3         1 O4B       0.136983
     16 CAE         -1.0460     2.5390    -2.5220 c3         1 O4B       0.136983
     17 OAN         -0.6430     1.9420    -1.2870 os         1 O4B      -0.431267
     18 CAB         -0.5100     0.5200    -1.3460 c3         1 O4B       0.136983
     19 HAA1        -0.3610    -1.0090     0.1570 h1         1 O4B       0.039242
     20 HAA2        -0.3610     0.6410     0.7950 h1         1 O4B       0.039242
     21 HAB1         0.1930     0.2550    -2.1260 h1         1 O4B       0.039242
     22 HAB2        -1.4740     0.0760    -1.5630 h1         1 O4B       0.039242
     23 HAC1         1.9630    -0.9990     1.7220 h1         1 O4B       0.039242
     24 HAC2         1.4630     0.6830     1.9450 h1         1 O4B       0.039242
     25 HAD1         3.7530     0.5460     0.1720 h1         1 O4B       0.039242
     26 HAD2         4.1050    -0.2920     1.6900 h1         1 O4B       0.039242
     27 HAG1         5.6440     2.0180     2.1560 h1         1 O4B       0.039242
     28 HAG2         5.0700     2.2210     0.4950 h1         1 O4B       0.039242
     29 HAH1         5.4860     4.2630     2.3700 h1         1 O4B       0.039242
     30 HAH2         3.7290     4.0590     2.3220 h1         1 O4B       0.039242
     31 HAK1         4.8190     6.5820     0.9550 h1         1 O4B       0.039242
     32 HAK2         3.2260     5.8950     1.3000 h1         1 O4B       0.039242
     33 HAL1         3.8520     5.5740    -1.5070 h1         1 O4B       0.039242
     34 HAL2         4.0270     7.2710    -1.0400 h1         1 O4B       0.039242
     35 HAJ1         2.1120     5.8460    -2.7240 h1         1 O4B       0.039242
     36 HAJ2         1.5660     7.5040    -2.4410 h1         1 O4B       0.039242
     37 HAI1        -0.5460     6.7010    -2.4660 h1         1 O4B       0.039242
     38 HAI2        -0.1800     5.9200    -0.9220 h1         1 O4B       0.039242
     39 HAF1        -1.5380     4.2380    -1.3010 h1         1 O4B       0.039242
     40 HAF2        -1.9940     4.4070    -3.0020 h1         1 O4B       0.039242
     41 HAE1        -1.9810     2.1000    -2.8480 h1         1 O4B       0.039242
     42 HAE2        -0.2840     2.3660    -3.2720 h1         1 O4B       0.039242
@<TRIPOS>BOND
     1     1     2 1
     2     1    18 1
     3     2     3 1
     4     3     4 1
     5     4     5 1
     6     5     6 1
     7     6     7 1
     8     7     8 1
     9     8     9 1
    10     9    10 1
    11    10    11 1
    12    11    12 1
    13    12    13 1
    14    13    14 1
    15    14    15 1
    16    15    16 1
    17    16    17 1
    18    17    18 1
    19     1    19 1
    20     1    20 1
    21    18    21 1
    22    18    22 1
    23     3    23 1
    24     3    24 1
    25     4    25 1
    26     4    26 1
    27     6    27 1
    28     6    28 1
    29     7    29 1
    30     7    30 1
    31     9    31 1
    32     9    32 1
    33    10    33 1
    34    10    34 1
    35    12    35 1
    36    12    36 1
    37    13    37 1
    38    13    38 1
    39    15    39 1
    40    15    40 1
    41    16    41 1
    42    16    42 1
@<TRIPOS>SUBSTRUCTURE
     1 O4B         1 TEMP              0 ****  ****    0 ROOT
