@<TRIPOS>MOLECULE
O4N
   72    75     1     0     0
SMALL
bcc


@<TRIPOS>ATOM
      1 C1           0.0000     0.0000     0.0000 ca         1 O4N      -0.126000
      2 C2           1.3840     0.0000     0.0000 ca         1 O4N      -0.097000
      3 C3          -0.6940     0.0010     1.1920 ca         1 O4N      -0.089000
      4 C4           2.0810     0.0000     1.1950 ca         1 O4N      -0.122000
      5 C5           1.7230     0.3750     7.0990 ca         1 O4N      -0.116000
      6 C6          -4.7130    -1.4390     5.7060 ca         1 O4N      -0.051000
      7 C7          -4.8950    -0.3010     3.6050 ca         1 O4N      -0.051000
      8 C8           0.7430     0.8220     7.9690 ca         1 O4N      -0.127000
      9 C9          -5.9660    -1.9890     5.5200 ca         1 O4N      -0.175500
     10 C10         -6.1480    -0.8500     3.4140 ca         1 O4N      -0.175500
     11 C11          0.0040     0.0020     2.4010 ca         1 O4N      -0.106600
     12 C12          0.5810    -1.7300     6.8900 ca         1 O4N      -0.008600
     13 C13         -4.1780    -0.5950     4.7500 ca         1 O4N      -0.120300
     14 C14          1.4000    -0.0000     2.3960 ca         1 O4N      -0.002300
     15 C15          1.6500    -0.8910     6.5590 ca         1 O4N      -0.048300
     16 C16         -0.3210     0.0040     8.3060 ca         1 O4N       0.019100
     17 C17         -0.4090    -1.2770     7.7690 ca         1 O4N       0.066100
     18 C18         -6.6870    -1.6960     4.3710 ca         1 O4N       0.136100
     19 C21         -0.7330     0.0020     3.6840 c          1 O4N       0.601700
     20 C23         -2.3500    -0.8090     8.7640 c3         1 O4N       0.409200
     21 C24         -1.7170     3.4450     6.2910 c3         1 O4N       0.008900
     22 C25         -8.6050    -1.8920     2.9800 c3         1 O4N       0.244700
     23 C26          2.1600    -0.0000     3.6960 c3         1 O4N       0.163100
     24 C27          2.7200    -1.3690     5.6130 c3         1 O4N       0.202100
     25 C28          2.9840    -2.2550     3.3740 c3         1 O4N       0.171000
     26 C30         -2.9550     1.4410     5.4600 c3         1 O4N      -0.038400
     27 C31         -2.8110     0.0050     4.9560 c3         1 O4N       0.073000
     28 N32         -2.0810     0.0030     3.6860 ns         1 O4N      -0.201900
     29 N33          2.1980    -1.3650     4.2400 n3         1 O4N      -0.456600
     30 O34         -0.2330    -3.3010     5.2030 o          1 O4N      -0.882800
     31 O35         -0.1230     0.0030     4.7340 o          1 O4N      -0.593100
     32 O36          1.0900    -4.0070     6.8400 o          1 O4N      -0.882800
     33 O37         -1.3940     0.2070     9.1250 os         1 O4N      -0.334900
     34 O38         -1.5340    -1.8780     8.2490 os         1 O4N      -0.291900
     35 O39         -7.9200    -2.2380     4.1860 os         1 O4N      -0.311900
     36 H1          -0.5400    -0.0000    -0.9390 ha         1 O4N       0.093000
     37 H2           1.9230    -0.0000    -0.9390 ha         1 O4N       0.091000
     38 H3          -1.7770     0.0020     1.1900 ha         1 O4N       0.098000
     39 H4           3.1640    -0.0010     1.1880 ha         1 O4N       0.103000
     40 H5           2.5520     1.0230     6.8410 ha         1 O4N       0.088000
     41 H8           0.8100     1.8190     8.3880 ha         1 O4N       0.090000
     42 H6          -4.1490    -1.6670     6.6030 ha         1 O4N       0.112000
     43 H9          -6.3850    -2.6500     6.2700 ha         1 O4N       0.112000
     44 H7          -4.4740     0.3600     2.8570 ha         1 O4N       0.112000
     45 H10         -6.7100    -0.6200     2.5170 ha         1 O4N       0.112000
     46 H31         -2.2660    -0.5810     5.6860 h1         1 O4N       0.092700
     47 H261         3.1710     0.3480     3.5230 h1         1 O4N       0.027200
     48 H262         1.6680     0.6570     4.4020 h1         1 O4N       0.027200
     49 H271         3.0180    -2.3750     5.8830 h1         1 O4N       0.014200
     50 H272         3.5780    -0.7100     5.6750 h1         1 O4N       0.014200
     51 H191         2.0980    -4.1690     1.8030 ha         1 O4N       0.073000
     52 H192         2.0460    -5.5480     3.0740 ha         1 O4N       0.073000
     53 H20          2.8470    -4.0370     4.7470 ha         1 O4N       0.133000
     54 H281         2.7180    -2.0790     2.3390 h1         1 O4N      -0.003800
     55 H282         4.0400    -2.0550     3.5140 h1         1 O4N      -0.003800
     56 H32         -2.5820    -0.0340     2.8210 hn         1 O4N       0.173500
     57 H231        -3.0220    -0.4410     7.9980 h2         1 O4N      -0.002300
     58 H232        -2.9000    -1.1380     9.6370 h2         1 O4N      -0.002300
     59 H241        -0.7340     3.8690     6.4610 hc         1 O4N      -0.008300
     60 H242        -2.2800     3.4590     7.2170 hc         1 O4N      -0.008300
     61 H243        -2.2380     4.0300     5.5430 hc         1 O4N      -0.008300
     62 H291        -0.9580     1.9980     4.8950 hc         1 O4N       0.051700
     63 H292        -1.1050     1.4020     6.5540 hc         1 O4N       0.051700
     64 H251        -9.5690    -2.3880     2.9580 h1         1 O4N      -0.007300
     65 H252        -8.0170    -2.2080     2.1270 h1         1 O4N      -0.007300
     66 H253        -8.7500    -0.8190     2.9420 h1         1 O4N      -0.007300
     67 H301        -3.4220     2.0480     4.6940 hc         1 O4N       0.009200
     68 H302        -3.5700     1.4500     6.3520 hc         1 O4N       0.009200
     69 C22          0.4980    -3.0850     6.3140 c          1 O4N       0.981200
     70 C19          2.2520    -4.5160     2.8170 c2         1 O4N      -0.176000
     71 C29         -1.5720     2.0080     5.7870 c3         1 O4N      -0.077400
     72 C20          2.6920    -3.6890     3.7320 c2         1 O4N      -0.117200
@<TRIPOS>BOND
     1     1     2 ar  
     2     1     3 ar  
     3     1    36 1   
     4     2     4 ar  
     5     2    37 1   
     6     3    11 ar  
     7     3    38 1   
     8     4    14 ar  
     9     4    39 1   
    10     5     8 ar  
    11     5    15 ar  
    12     5    40 1   
    13     6     9 ar  
    14     6    13 ar  
    15     6    42 1   
    16     7    10 ar  
    17     7    13 ar  
    18     7    44 1   
    19     8    16 ar  
    20     8    41 1   
    21     9    18 ar  
    22     9    43 1   
    23    10    18 ar  
    24    10    45 1   
    25    11    14 ar  
    26    11    19 1   
    27    12    15 ar  
    28    12    17 ar  
    29    12    69 1   
    30    13    27 1   
    31    14    23 1   
    32    15    24 1   
    33    16    17 ar  
    34    16    33 1   
    35    17    34 1   
    36    18    35 1   
    37    19    28 1   
    38    19    31 2   
    39    20    33 1   
    40    20    34 1   
    41    20    57 1   
    42    20    58 1   
    43    21    59 1   
    44    21    60 1   
    45    21    61 1   
    46    21    71 1   
    47    22    35 1   
    48    22    64 1   
    49    22    65 1   
    50    22    66 1   
    51    23    29 1   
    52    23    47 1   
    53    23    48 1   
    54    24    29 1   
    55    24    49 1   
    56    24    50 1   
    57    25    29 1   
    58    25    54 1   
    59    25    55 1   
    60    25    72 1   
    61    26    27 1   
    62    26    67 1   
    63    26    68 1   
    64    26    71 1   
    65    27    28 1   
    66    27    46 1   
    67    28    56 1   
    68    30    69 1   
    69    32    69 1   
    70    51    70 1   
    71    52    70 1   
    72    53    72 1   
    73    62    71 1   
    74    63    71 1   
    75    70    72 2   
@<TRIPOS>SUBSTRUCTURE
     1 O4N         1 TEMP              0 ****  ****    0 ROOT
