@<TRIPOS>MOLECULE
molecule
   72    75     1     0     0
SMALL
bcc


@<TRIPOS>ATOM
      1 C1           0.0000     0.0000     0.0000 ca         1 O4N      -0.149000
      2 C2           1.3840     0.0000     0.0000 ca         1 O4N      -0.123000
      3 C3          -0.6940     0.0010     1.1920 ca         1 O4N      -0.109000
      4 C4           2.0810     0.0000     1.1950 ca         1 O4N      -0.143000
      5 C5           1.7230     0.3750     7.0990 ca         1 O4N      -0.132000
      6 C6          -4.7130    -1.4390     5.7060 ca         1 O4N      -0.081500
      7 C7          -4.8950    -0.3010     3.6050 ca         1 O4N      -0.081500
      8 C8           0.7430     0.8220     7.9690 ca         1 O4N      -0.147000
      9 C9          -5.9660    -1.9890     5.5200 ca         1 O4N      -0.189000
     10 C10         -6.1480    -0.8500     3.4140 ca         1 O4N      -0.189000
     11 C11          0.0040     0.0020     2.4010 ca         1 O4N      -0.099600
     12 C12          0.5810    -1.7300     6.8900 ca         1 O4N      -0.011600
     13 C13         -4.1780    -0.5950     4.7500 ca         1 O4N      -0.110300
     14 C14          1.4000    -0.0000     2.3960 ca         1 O4N      -0.008300
     15 C15          1.6500    -0.8910     6.5590 ca         1 O4N      -0.044300
     16 C16         -0.3210     0.0040     8.3060 ca         1 O4N       0.019100
     17 C17         -0.4090    -1.2770     7.7690 ca         1 O4N       0.052100
     18 C18         -6.6870    -1.6960     4.3710 ca         1 O4N       0.127100
     19 C21         -0.7330     0.0020     3.6840 c          1 O4N       0.677700
     20 C23         -2.3500    -0.8090     8.7640 c3         1 O4N       0.323200
     21 C24         -1.7170     3.4450     6.2910 c3         1 O4N      -0.092100
     22 C25         -8.6050    -1.8920     2.9800 c3         1 O4N       0.131700
     23 C26          2.1600    -0.0000     3.6960 c3         1 O4N       0.197100
     24 C27          2.7200    -1.3690     5.6130 c3         1 O4N       0.223100
     25 C28          2.9840    -2.2550     3.3740 c3         1 O4N       0.190000
     26 C30         -2.9550     1.4410     5.4600 c3         1 O4N      -0.090400
     27 C31         -2.8110     0.0050     4.9560 c3         1 O4N       0.167000
     28 N32         -2.0810     0.0030     3.6860 ns         1 O4N      -0.578900
     29 N33          2.1980    -1.3650     4.2400 n3         1 O4N      -0.662600
     30 O34         -0.2330    -3.3010     5.2030 o          1 O4N      -0.827800
     31 O35         -0.1230     0.0030     4.7340 o          1 O4N      -0.555100
     32 O36          1.0900    -4.0070     6.8400 o          1 O4N      -0.827800
     33 O37         -1.3940     0.2070     9.1250 os         1 O4N      -0.350900
     34 O38         -1.5340    -1.8780     8.2490 os         1 O4N      -0.305900
     35 O39         -7.9200    -2.2380     4.1860 os         1 O4N      -0.333900
     36 H1          -0.5400    -0.0000    -0.9390 ha         1 O4N       0.117000
     37 H2           1.9230    -0.0000    -0.9390 ha         1 O4N       0.117000
     38 H3          -1.7770     0.0020     1.1900 ha         1 O4N       0.121000
     39 H4           3.1640    -0.0010     1.1880 ha         1 O4N       0.127000
     40 H5           2.5520     1.0230     6.8410 ha         1 O4N       0.110000
     41 H8           0.8100     1.8190     8.3880 ha         1 O4N       0.113000
     42 H6          -4.1490    -1.6670     6.6030 ha         1 O4N       0.138000
     43 H9          -6.3850    -2.6500     6.2700 ha         1 O4N       0.132500
     44 H7          -4.4740     0.3600     2.8570 ha         1 O4N       0.138000
     45 H10         -6.7100    -0.6200     2.5170 ha         1 O4N       0.132500
     46 H31         -2.2660    -0.5810     5.6860 h1         1 O4N       0.114700
     47 H261         3.1710     0.3480     3.5230 h1         1 O4N       0.044700
     48 H262         1.6680     0.6570     4.4020 h1         1 O4N       0.044700
     49 H271         3.0180    -2.3750     5.8830 h1         1 O4N       0.037700
     50 H272         3.5780    -0.7100     5.6750 h1         1 O4N       0.037700
     51 H191         2.0420    -5.5470     3.0750 ha         1 O4N       0.099000
     52 H192         2.0940    -4.1680     1.8030 ha         1 O4N       0.099000
     53 H20          2.8470    -4.0370     4.7470 ha         1 O4N       0.153000
     54 H281         2.7180    -2.0790     2.3390 h1         1 O4N       0.018200
     55 H282         4.0400    -2.0550     3.5140 h1         1 O4N       0.018200
     56 H32         -2.5820    -0.0430     2.8210 hn         1 O4N       0.303500
     57 H231        -2.9000    -1.1380     9.6370 h2         1 O4N       0.047700
     58 H232        -3.0220    -0.4410     7.9980 h2         1 O4N       0.047700
     59 H241        -2.2760     3.4480     7.2190 hc         1 O4N       0.022700
     60 H242        -0.7250     3.8450     6.4660 hc         1 O4N       0.022700
     61 H243        -2.2290     4.0580     5.5590 hc         1 O4N       0.022700
     62 H291        -1.1050     1.4020     6.5540 hc         1 O4N       0.067700
     63 H292        -0.9580     1.9980     4.8950 hc         1 O4N       0.067700
     64 H251        -9.5680    -2.3880     2.9580 h1         1 O4N       0.035367
     65 H252        -8.0170    -2.2070     2.1270 h1         1 O4N       0.035367
     66 H253        -8.7510    -0.8190     2.9420 h1         1 O4N       0.035367
     67 H301        -3.4220     2.0480     4.6940 hc         1 O4N       0.033200
     68 H302        -3.5700     1.4500     6.3520 hc         1 O4N       0.033200
     69 C22          0.4980    -3.0850     6.3140 c          1 O4N       0.890200
     70 C19          2.2520    -4.5160     2.8170 c2         1 O4N      -0.224000
     71 C29         -1.5720     2.0080     5.7870 c3         1 O4N      -0.089400
     72 C20          2.6920    -3.6890     3.7320 c2         1 O4N      -0.129200
@<TRIPOS>BOND
     1     1     2 ar
     2     1     3 ar
     3     2     4 ar
     4     3    11 ar
     5     4    14 ar
     6     5     8 ar
     7     5    15 ar
     8     6     9 ar
     9     6    13 ar
    10     7    10 ar
    11     7    13 ar
    12     8    16 ar
    13     9    18 ar
    14    10    18 ar
    15    11    14 ar
    16    11    19 1
    17    12    15 ar
    18    12    17 ar
    19    12    69 1
    20    13    27 1
    21    14    23 1
    22    15    24 1
    23    16    17 ar
    24    16    33 1
    25    17    34 1
    26    18    35 1
    27    70    72 2
    28    72    25 1
    29    19    28 1
    30    19    31 2
    31    69    30 1
    32    69    32 1
    33    20    33 1
    34    20    34 1
    35    21    71 1
    36    22    35 1
    37    23    29 1
    38    24    29 1
    39    25    29 1
    40    71    26 1
    41    26    27 1
    42    27    28 1
    43     1    36 1
    44     2    37 1
    45     3    38 1
    46     4    39 1
    47     5    40 1
    48     8    41 1
    49     6    42 1
    50     9    43 1
    51     7    44 1
    52    10    45 1
    53    27    46 1
    54    23    47 1
    55    23    48 1
    56    24    49 1
    57    24    50 1
    58    70    51 1
    59    70    52 1
    60    72    53 1
    61    25    54 1
    62    25    55 1
    63    28    56 1
    64    20    57 1
    65    20    58 1
    66    21    59 1
    67    21    60 1
    68    21    61 1
    69    71    62 1
    70    71    63 1
    71    22    64 1
    72    22    65 1
    73    22    66 1
    74    26    67 1
    75    26    68 1
@<TRIPOS>SUBSTRUCTURE
     1 O4N         1 TEMP              0 ****  ****    0 ROOT
