@<TRIPOS>MOLECULE
molecule
   37    39     1     0     0
SMALL
bcc


@<TRIPOS>ATOM
      1 CAS          0.0000     0.0000     0.0000 c3         1 O53      -0.085100
      2 CAR          1.5300     0.0000     0.0000 c3         1 O53      -0.032400
      3 CAT          2.0400     0.0000     1.4420 c3         1 O53      -0.085100
      4 CAA          2.0330    -1.2300    -0.7100 ca         1 O53      -0.066300
      5 CAD          2.8280    -1.1030    -1.8340 ca         1 O53      -0.131000
      6 CAE          3.2880    -2.2320    -2.4850 ca         1 O53      -0.098500
      7 CAC          1.7040    -2.4860    -0.2350 ca         1 O53      -0.131000
      8 CAB          2.1640    -3.6140    -0.8860 ca         1 O53      -0.098500
      9 CAF          2.9540    -3.4880    -2.0130 ca         1 O53      -0.131300
     10 CAG          3.4570    -4.7180    -2.7230 c3         1 O53       0.425200
     11 NAI          3.6170    -4.4230    -4.1480 ns         1 O53      -0.612900
     12 CAH          2.5970    -4.6010    -5.0140 c          1 O53       0.724100
     13 OAK          2.7210    -4.2900    -6.1830 o          1 O53      -0.636500
     14 CAQ          1.3330    -5.1750    -4.5240 ca         1 O53      -0.307900
     15 CAL          0.1600    -5.1260    -5.2740 ca         1 O53      -0.016000
     16 CAM         -0.9800    -5.6990    -4.7320 ca         1 O53      -0.283300
     17 CAN         -0.9190    -6.2940    -3.4850 ca         1 O53       0.458200
     18 NAO          0.2040    -6.3280    -2.7910 nb         1 O53      -0.696000
     19 CAP          1.3170    -5.7950    -3.2580 ca         1 O53       0.655200
     20 NAJ          2.4990    -5.8130    -2.5340 nu         1 O53      -0.828900
     21 HAS1        -0.3610    -0.7760     0.6640 hc         1 O53       0.036700
     22 HAS2        -0.3610    -0.1870    -1.0040 hc         1 O53       0.036700
     23 HAS3        -0.3610     0.9630     0.3400 hc         1 O53       0.036700
     24 HAR          1.8910     0.8850    -0.5110 hc         1 O53       0.054700
     25 HAT1         1.5250    -0.7670     2.0080 hc         1 O53       0.036700
     26 HAT2         3.1050    -0.2010     1.4490 hc         1 O53       0.036700
     27 HAT3         1.8530     0.9680     1.8920 hc         1 O53       0.036700
     28 HAD          3.0900    -0.1200    -2.2040 ha         1 O53       0.133500
     29 HAC          1.0840    -2.5850     0.6490 ha         1 O53       0.133500
     30 HAE          3.9090    -2.1330    -3.3680 ha         1 O53       0.143000
     31 HAB          1.9040    -4.5980    -0.5150 ha         1 O53       0.143000
     32 HAG          4.4150    -5.0090    -2.3100 h2         1 O53       0.082700
     33 HAI          4.4960    -4.0850    -4.4850 hn         1 O53       0.331500
     34 HAJ          2.9620    -6.6900    -2.6740 hn         1 O53       0.399800
     35 HAL          0.1390    -4.6530    -6.2480 ha         1 O53       0.162000
     36 HAM         -1.9120    -5.6840    -5.2840 ha         1 O53       0.144000
     37 HAN         -1.8140    -6.7410    -3.0670 h4         1 O53       0.028100
@<TRIPOS>BOND
     1     1     2 1
     2     2     3 1
     3     2     4 1
     4     4     5 ar
     5     4     7 ar
     6     5     6 ar
     7     6     9 ar
     8     7     8 ar
     9     8     9 ar
    10     9    10 1
    11    10    11 1
    12    10    20 1
    13    11    12 1
    14    12    13 2
    15    12    14 1
    16    14    15 ar
    17    14    19 ar
    18    15    16 ar
    19    16    17 ar
    20    17    18 ar
    21    18    19 ar
    22    19    20 1
    23     1    21 1
    24     1    22 1
    25     1    23 1
    26     2    24 1
    27     3    25 1
    28     3    26 1
    29     3    27 1
    30     5    28 1
    31     7    29 1
    32     6    30 1
    33     8    31 1
    34    10    32 1
    35    11    33 1
    36    20    34 1
    37    15    35 1
    38    16    36 1
    39    17    37 1
@<TRIPOS>SUBSTRUCTURE
     1 O53         1 TEMP              0 ****  ****    0 ROOT
