@<TRIPOS>MOLECULE
O53
   37    39     1     0     0
SMALL
bcc


@<TRIPOS>ATOM
      1 CAS          0.0000     0.0000     0.0000 c3         1 O53       0.005900
      2 CAR          1.5300     0.0000     0.0000 c3         1 O53       0.002600
      3 CAT          2.0400     0.0000     1.4420 c3         1 O53       0.005900
      4 CAA          2.0330    -1.2300    -0.7100 ca         1 O53      -0.075300
      5 CAD          2.8280    -1.1030    -1.8340 ca         1 O53      -0.100000
      6 CAE          3.2880    -2.2320    -2.4850 ca         1 O53      -0.078500
      7 CAC          1.7040    -2.4860    -0.2350 ca         1 O53      -0.100000
      8 CAB          2.1640    -3.6140    -0.8860 ca         1 O53      -0.078500
      9 CAF          2.9540    -3.4880    -2.0130 ca         1 O53      -0.145300
     10 CAG          3.4570    -4.7180    -2.7230 c3         1 O53       0.262200
     11 NAI          3.6170    -4.4230    -4.1480 ns         1 O53      -0.232900
     12 CAH          2.5970    -4.6010    -5.0140 c          1 O53       0.656100
     13 OAK          2.7210    -4.2900    -6.1830 o          1 O53      -0.673500
     14 CAQ          1.3330    -5.1750    -4.5240 ca         1 O53      -0.313900
     15 CAL          0.1600    -5.1260    -5.2740 ca         1 O53       0.020000
     16 CAM         -0.9800    -5.6990    -4.7320 ca         1 O53      -0.251300
     17 CAN         -0.9190    -6.2940    -3.4850 ca         1 O53       0.438200
     18 NAO          0.2040    -6.3280    -2.7910 nb         1 O53      -0.577000
     19 CAP          1.3170    -5.7950    -3.2580 ca         1 O53       0.506200
     20 NAJ          2.4990    -5.8130    -2.5340 nu         1 O53      -0.519900
     21 HAS1        -0.3610    -0.7760     0.6640 hc         1 O53       0.005533
     22 HAS2        -0.3610    -0.1870    -1.0040 hc         1 O53       0.005533
     23 HAS3        -0.3610     0.9630     0.3400 hc         1 O53       0.005533
     24 HAR          1.8910     0.8850    -0.5110 hc         1 O53       0.027700
     25 HAT1         1.5250    -0.7670     2.0080 hc         1 O53       0.005533
     26 HAT2         3.1050    -0.2010     1.4490 hc         1 O53       0.005533
     27 HAT3         1.8530     0.9680     1.8920 hc         1 O53       0.005533
     28 HAD          3.0900    -0.1200    -2.2040 ha         1 O53       0.110500
     29 HAC          1.0840    -2.5850     0.6490 ha         1 O53       0.110500
     30 HAE          3.9090    -2.1330    -3.3680 ha         1 O53       0.116500
     31 HAB          1.9040    -4.5980    -0.5150 ha         1 O53       0.116500
     32 HAG          4.4150    -5.0090    -2.3100 h2         1 O53       0.045700
     33 HAI          4.4960    -4.0850    -4.4850 hn         1 O53       0.193500
     34 HAJ          2.9620    -6.6900    -2.6740 hn         1 O53       0.270800
     35 HAL          0.1390    -4.6530    -6.2480 ha         1 O53       0.129000
     36 HAM         -1.9120    -5.6840    -5.2840 ha         1 O53       0.118000
     37 HAN         -1.8140    -6.7410    -3.0670 h4         1 O53      -0.019900
@<TRIPOS>BOND
     1     1     2 1   
     2     1    21 1   
     3     1    22 1   
     4     1    23 1   
     5     2     3 1   
     6     2     4 1   
     7     2    24 1   
     8     3    25 1   
     9     3    26 1   
    10     3    27 1   
    11     4     5 ar  
    12     4     7 ar  
    13     5     6 ar  
    14     5    28 1   
    15     6     9 ar  
    16     6    30 1   
    17     7     8 ar  
    18     7    29 1   
    19     8     9 ar  
    20     8    31 1   
    21     9    10 1   
    22    10    11 1   
    23    10    20 1   
    24    10    32 1   
    25    11    12 1   
    26    11    33 1   
    27    12    13 2   
    28    12    14 1   
    29    14    15 ar  
    30    14    19 ar  
    31    15    16 ar  
    32    15    35 1   
    33    16    17 ar  
    34    16    36 1   
    35    17    18 ar  
    36    17    37 1   
    37    18    19 ar  
    38    19    20 1   
    39    20    34 1   
@<TRIPOS>SUBSTRUCTURE
     1 O53         1 TEMP              0 ****  ****    0 ROOT
