@<TRIPOS>MOLECULE
molecule
   62    65     1     0     0
SMALL
bcc


@<TRIPOS>ATOM
      1 C1           0.0000     0.0000     0.0000 ca         1 O58      -0.133000
      2 C2           1.3810     0.0000     0.0000 ca         1 O58      -0.112000
      3 C3           2.0740     0.0000     1.1970 ca         1 O58       0.032400
      4 C4           1.3860     0.0010     2.3980 ca         1 O58      -0.103000
      5 C5           0.0050     0.0020     2.4030 ca         1 O58      -0.052300
      6 C6          -0.6920     0.0070     1.2020 ca         1 O58       0.004800
      7 N7          -2.0960     0.0070     1.2040 na         1 O58       0.007500
      8 C8          -2.9170    -0.0850     0.1370 cc         1 O58       0.405400
      9 N9          -4.1450    -0.0460     0.5870 nd         1 O58      -0.408000
     10 N10         -4.1540     0.0650     1.8660 nd         1 O58      -0.011000
     11 N11         -2.9470     0.0990     2.3200 nc         1 O58      -0.202800
     12 Cl12         3.8100    -0.0010     1.1950 cl         1 O58      -0.096400
     13 C13         -0.7450     0.0020     3.7110 c3         1 O58      -0.030100
     14 C14         -1.2700    -1.4060     3.9980 c3         1 O58      -0.144400
     15 C15         -1.9400    -1.4270     5.3470 c          1 O58       0.666100
     16 N16         -2.5980    -2.5290     5.7560 ns         1 O58      -0.563900
     17 O17         -1.8860    -0.4510     6.0660 o          1 O58      -0.614100
     18 C18         -3.3400    -2.5130     7.0200 c3         1 O58       0.042700
     19 C19         -3.3670    -3.9020     7.6030 c          1 O58       0.642100
     20 O20         -2.8220    -4.8160     7.0210 o          1 O58      -0.592100
     21 N21         -3.9980    -4.1300     8.7720 ns         1 O58      -0.464100
     22 C22         -3.9420    -5.3980     9.3630 ca         1 O58       0.002600
     23 C23         -5.0350    -5.8860    10.0670 ca         1 O58      -0.140500
     24 C24         -4.9760    -7.1370    10.6490 ca         1 O58      -0.110500
     25 C25         -3.8310    -7.9030    10.5300 ca         1 O58      -0.009300
     26 C26         -2.7410    -7.4200     9.8290 ca         1 O58      -0.110500
     27 C27         -2.7960    -6.1710     9.2400 ca         1 O58      -0.140500
     28 C28         -4.7720    -2.0380     6.7650 c3         1 O58      -0.047100
     29 C29         -4.7520    -0.5950     6.3310 ca         1 O58      -0.076300
     30 C30         -4.7860    -0.2780     4.9870 ca         1 O58      -0.113000
     31 C31         -4.7670     1.0470     4.5880 ca         1 O58      -0.121500
     32 C32         -4.7170     2.0520     5.5350 ca         1 O58      -0.136000
     33 C33         -4.6840     1.7330     6.8800 ca         1 O58      -0.121500
     34 C34         -4.7080     0.4100     7.2790 ca         1 O58      -0.113000
     35 C35         -3.7700    -9.2680    11.1660 c3         1 O58      -0.155100
     36 C36         -4.2620   -10.3020    10.1850 c          1 O58       0.893600
     37 O37         -4.2970   -11.5970    10.5360 o          1 O58      -0.842300
     38 O38         -4.6230    -9.9640     9.0830 o          1 O58      -0.842300
     39 H1          -0.5420     0.0020    -0.9380 ha         1 O58       0.139000
     40 H2           1.9230    -0.0030    -0.9380 ha         1 O58       0.152000
     41 H4           1.9310    -0.0010     3.3340 ha         1 O58       0.162000
     42 H8          -2.6150    -0.1750    -0.9000 h5         1 O58       0.080100
     43 H13         -1.5770     0.6930     3.6500 hc         1 O58       0.086200
     44 H13A        -0.0780     0.3080     4.5080 hc         1 O58       0.086200
     45 H14         -0.4440    -2.1070     3.9940 hc         1 O58       0.063200
     46 H14A        -1.9860    -1.6880     3.2350 hc         1 O58       0.063200
     47 HN16        -2.5520    -3.3690     5.2130 hn         1 O58       0.337500
     48 H18         -2.8540    -1.8400     7.7150 h1         1 O58       0.096700
     49 HN21        -4.4940    -3.3880     9.2250 hn         1 O58       0.312500
     50 H23         -5.9320    -5.2850    10.1610 ha         1 O58       0.122500
     51 H24         -5.8270    -7.5190    11.1990 ha         1 O58       0.132500
     52 H26         -1.8470    -8.0240     9.7360 ha         1 O58       0.132500
     53 H27         -1.9420    -5.7930     8.6920 ha         1 O58       0.122500
     54 H28         -5.2200    -2.6430     5.9870 hc         1 O58       0.058200
     55 H28A        -5.3510    -2.1330     7.6760 hc         1 O58       0.058200
     56 H30         -4.8260    -1.0660     4.2450 ha         1 O58       0.126500
     57 H31         -4.7940     1.2960     3.5340 ha         1 O58       0.128500
     58 H32         -4.7000     3.0900     5.2240 ha         1 O58       0.118000
     59 H33         -4.6470     2.5220     7.6220 ha         1 O58       0.128500
     60 H34         -4.6820     0.1610     8.3320 ha         1 O58       0.126500
     61 H35         -2.7470    -9.4920    11.4440 hc         1 O58       0.039200
     62 H35A        -4.3960    -9.2830    12.0500 hc         1 O58       0.039200
@<TRIPOS>BOND
     1     6     1 ar
     2     2     1 ar
     3     1    39 1
     4     3     2 ar
     5     2    40 1
     6     4     3 ar
     7    12     3 1
     8     4     5 ar
     9     4    41 1
    10    13     5 1
    11     5     6 ar
    12     6     7 1
    13     8     7 1
    14     7    11 1
    15     8     9 2
    16     8    42 1
    17     9    10 1
    18    10    11 2
    19    13    14 1
    20    13    43 1
    21    13    44 1
    22    15    14 1
    23    14    45 1
    24    14    46 1
    25    16    15 1
    26    15    17 2
    27    18    16 1
    28    16    47 1
    29    28    18 1
    30    18    19 1
    31    18    48 1
    32    20    19 2
    33    19    21 1
    34    21    22 1
    35    21    49 1
    36    22    27 ar
    37    22    23 ar
    38    23    24 ar
    39    23    50 1
    40    24    25 ar
    41    24    51 1
    42    26    25 ar
    43    25    35 1
    44    27    26 ar
    45    26    52 1
    46    27    53 1
    47    29    28 1
    48    28    54 1
    49    28    55 1
    50    34    29 ar
    51    29    30 ar
    52    31    30 ar
    53    30    56 1
    54    32    31 ar
    55    31    57 1
    56    33    32 ar
    57    32    58 1
    58    33    34 ar
    59    33    59 1
    60    34    60 1
    61    36    35 1
    62    35    61 1
    63    35    62 1
    64    38    36 1
    65    36    37 1
@<TRIPOS>SUBSTRUCTURE
     1 O58         1 TEMP              0 ****  ****    0 ROOT
