@<TRIPOS>MOLECULE
O58
   62    65     1     0     0
SMALL
bcc


@<TRIPOS>ATOM
      1 C1           0.0000     0.0000     0.0000 ca         1 O58      -0.091000
      2 C2           1.3810     0.0000     0.0000 ca         1 O58      -0.095000
      3 C3           2.0740     0.0000     1.1970 ca         1 O58      -0.020600
      4 C4           1.3860     0.0010     2.3980 ca         1 O58      -0.084000
      5 C5           0.0050     0.0020     2.4030 ca         1 O58      -0.030300
      6 C6          -0.6920     0.0070     1.2020 ca         1 O58      -0.168200
      7 N7          -2.0960     0.0070     1.2040 na         1 O58       0.482500
      8 C8          -2.9170    -0.0850     0.1370 cc         1 O58       0.246400
      9 N9          -4.1450    -0.0460     0.5870 nd         1 O58      -0.384000
     10 N10         -4.1540     0.0650     1.8660 nd         1 O58       0.027000
     11 N11         -2.9470     0.0990     2.3200 nc         1 O58      -0.391800
     12 Cl12         3.8100    -0.0010     1.1950 cl         1 O58      -0.009400
     13 C13         -0.7450     0.0020     3.7110 c3         1 O58       0.003900
     14 C14         -1.2700    -1.4060     3.9980 c3         1 O58      -0.090400
     15 C15         -1.9400    -1.4270     5.3470 c          1 O58       0.577100
     16 N16         -2.5980    -2.5290     5.7560 ns         1 O58      -0.163900
     17 O17         -1.8860    -0.4510     6.0660 o          1 O58      -0.657100
     18 C18         -3.3400    -2.5130     7.0200 c3         1 O58      -0.062300
     19 C19         -3.3670    -3.9020     7.6030 c          1 O58       0.538100
     20 O20         -2.8220    -4.8160     7.0210 o          1 O58      -0.638100
     21 N21         -3.9980    -4.1300     8.7720 ns         1 O58      -0.004100
     22 C22         -3.9420    -5.3980     9.3630 ca         1 O58      -0.154400
     23 C23         -5.0350    -5.8860    10.0670 ca         1 O58      -0.112000
     24 C24         -4.9760    -7.1370    10.6490 ca         1 O58      -0.086500
     25 C25         -3.8310    -7.9030    10.5300 ca         1 O58       0.003700
     26 C26         -2.7410    -7.4200     9.8290 ca         1 O58      -0.086500
     27 C27         -2.7960    -6.1710     9.2400 ca         1 O58      -0.112000
     28 C28         -4.7720    -2.0380     6.7650 c3         1 O58       0.019900
     29 C29         -4.7520    -0.5950     6.3310 ca         1 O58      -0.088300
     30 C30         -4.7860    -0.2780     4.9870 ca         1 O58      -0.087000
     31 C31         -4.7670     1.0470     4.5880 ca         1 O58      -0.098500
     32 C32         -4.7170     2.0520     5.5350 ca         1 O58      -0.110000
     33 C33         -4.6840     1.7330     6.8800 ca         1 O58      -0.098500
     34 C34         -4.7080     0.4100     7.2790 ca         1 O58      -0.087000
     35 C35         -3.7700    -9.2680    11.1660 c3         1 O58      -0.097100
     36 C36         -4.2620   -10.3020    10.1850 c          1 O58       0.981600
     37 O37         -4.2970   -11.5970    10.5360 o          1 O58      -0.892800
     38 O38         -4.6230    -9.9640     9.0830 o          1 O58      -0.892800
     39 H1          -0.5420     0.0020    -0.9380 ha         1 O58       0.113000
     40 H2           1.9230    -0.0030    -0.9380 ha         1 O58       0.120000
     41 H4           1.9310    -0.0010     3.3340 ha         1 O58       0.132000
     42 H8          -2.6150    -0.1750    -0.9000 h5         1 O58       0.038100
     43 H13         -1.5770     0.6930     3.6500 hc         1 O58       0.062200
     44 H13A        -0.0780     0.3080     4.5080 hc         1 O58       0.062200
     45 H14         -0.4440    -2.1070     3.9940 hc         1 O58       0.029700
     46 H14A        -1.9860    -1.6880     3.2350 hc         1 O58       0.029700
     47 HN16        -2.5520    -3.3690     5.2130 hn         1 O58       0.196500
     48 H18         -2.8540    -1.8400     7.7150 h1         1 O58       0.070700
     49 HN21        -4.4940    -3.3880     9.2250 hn         1 O58       0.156500
     50 H23         -5.9320    -5.2850    10.1610 ha         1 O58       0.103000
     51 H24         -5.8270    -7.5190    11.1990 ha         1 O58       0.106000
     52 H26         -1.8470    -8.0240     9.7360 ha         1 O58       0.106000
     53 H27         -1.9420    -5.7930     8.6920 ha         1 O58       0.103000
     54 H28         -5.2200    -2.6430     5.9870 hc         1 O58       0.025700
     55 H28A        -5.3510    -2.1330     7.6760 hc         1 O58       0.025700
     56 H30         -4.8260    -1.0660     4.2450 ha         1 O58       0.102500
     57 H31         -4.7940     1.2960     3.5340 ha         1 O58       0.105500
     58 H32         -4.7000     3.0900     5.2240 ha         1 O58       0.092000
     59 H33         -4.6470     2.5220     7.6220 ha         1 O58       0.105500
     60 H34         -4.6820     0.1610     8.3320 ha         1 O58       0.102500
     61 H35         -2.7470    -9.4920    11.4440 hc         1 O58       0.013200
     62 H35A        -4.3960    -9.2830    12.0500 hc         1 O58       0.013200
@<TRIPOS>BOND
     1     1     2 ar  
     2     1     6 ar  
     3     1    39 1   
     4     2     3 ar  
     5     2    40 1   
     6     3     4 ar  
     7     3    12 1   
     8     4     5 ar  
     9     4    41 1   
    10     5     6 ar  
    11     5    13 1   
    12     6     7 1   
    13     7     8 1   
    14     7    11 1   
    15     8     9 2   
    16     8    42 1   
    17     9    10 1   
    18    10    11 2   
    19    13    14 1   
    20    13    43 1   
    21    13    44 1   
    22    14    15 1   
    23    14    45 1   
    24    14    46 1   
    25    15    16 1   
    26    15    17 2   
    27    16    18 1   
    28    16    47 1   
    29    18    19 1   
    30    18    28 1   
    31    18    48 1   
    32    19    20 2   
    33    19    21 1   
    34    21    22 1   
    35    21    49 1   
    36    22    23 ar  
    37    22    27 ar  
    38    23    24 ar  
    39    23    50 1   
    40    24    25 ar  
    41    24    51 1   
    42    25    26 ar  
    43    25    35 1   
    44    26    27 ar  
    45    26    52 1   
    46    27    53 1   
    47    28    29 1   
    48    28    54 1   
    49    28    55 1   
    50    29    30 ar  
    51    29    34 ar  
    52    30    31 ar  
    53    30    56 1   
    54    31    32 ar  
    55    31    57 1   
    56    32    33 ar  
    57    32    58 1   
    58    33    34 ar  
    59    33    59 1   
    60    34    60 1   
    61    35    36 1   
    62    35    61 1   
    63    35    62 1   
    64    36    37 1   
    65    36    38 1   
@<TRIPOS>SUBSTRUCTURE
     1 O58         1 TEMP              0 ****  ****    0 ROOT
