@<TRIPOS>MOLECULE
molecule
   40    39     1     0     0
SMALL
bcc


@<TRIPOS>ATOM
      1 C1           0.0000     0.0000     0.0000 c3         1 O59       0.134400
      2 N1          -2.5150     1.5270    -1.0990 nz         1 O59      -0.833500
      3 O1          -2.4780    -0.8500    -0.4370 o          1 O59      -0.518300
      4 S1          -1.9940    -0.0010    -1.4680 s6         1 O59       1.495900
      5 C2           1.5300     0.0000     0.0000 c3         1 O59      -0.075400
      6 N2          10.1630     1.5300     5.4280 nz         1 O59      -0.833500
      7 O2          -2.2870    -0.2040    -2.8440 o          1 O59      -0.518300
      8 S2           9.6420     0.0030     5.7970 s6         1 O59       1.495900
      9 C3           2.0390     0.0000     1.4430 c3         1 O59      -0.082400
     10 O3          -0.4760    -0.0010    -1.3470 os         1 O59      -0.514500
     11 C4           3.5690    -0.0000     1.4430 c3         1 O59      -0.077400
     12 O4           8.1240     0.0020     5.6760 os         1 O59      -0.514500
     13 C5           4.0790     0.0010     2.8860 c3         1 O59      -0.077400
     14 O5          10.1270    -0.8470     4.7660 o          1 O59      -0.518300
     15 C6           5.6090     0.0010     2.8860 c3         1 O59      -0.082400
     16 O6           9.9360    -0.2000     7.1720 o          1 O59      -0.518300
     17 C7           6.1190     0.0020     4.3290 c3         1 O59      -0.075400
     18 C8           7.6480     0.0020     4.3290 c3         1 O59       0.134400
     19 H1          -0.3610    -0.8840     0.5110 h1         1 O59       0.064200
     20 H1A         -0.3610     0.8850     0.5100 h1         1 O59       0.064200
     21 HN1         -3.3950     1.6970    -1.5460 hn         1 O59       0.498467
     22 HN1A        -1.8430     2.1950    -1.4210 hn         1 O59       0.498467
     23 H2           1.8910    -0.8850    -0.5110 hc         1 O59       0.077200
     24 H2A          1.8910     0.8850    -0.5110 hc         1 O59       0.077200
     25 HN2          9.4910     2.1990     5.7490 hn         1 O59       0.498467
     26 HN2A        11.0420     1.7000     5.8740 hn         1 O59       0.498467
     27 H3           1.6780    -0.8850     1.9530 hc         1 O59       0.052200
     28 H3A          1.6780     0.8850     1.9530 hc         1 O59       0.052200
     29 H4           3.9300    -0.8850     0.9330 hc         1 O59       0.053950
     30 H4A          3.9300     0.8840     0.9310 hc         1 O59       0.053950
     31 H5           3.7180     0.8860     3.3960 hc         1 O59       0.053950
     32 H5A          3.7180    -0.8830     3.3970 hc         1 O59       0.053950
     33 H6           5.9700     0.8850     2.3750 hc         1 O59       0.052200
     34 H6A          5.9700    -0.8840     2.3760 hc         1 O59       0.052200
     35 H7           5.7580     0.8870     4.8390 hc         1 O59       0.077200
     36 H7A          5.7580    -0.8820     4.8400 hc         1 O59       0.077200
     37 H8           8.0100    -0.8820     3.8180 h1         1 O59       0.064200
     38 H8A          8.0100     0.8870     3.8180 h1         1 O59       0.064200
     39 H13         -2.6150     1.6150    -0.1070 hn         1 O59       0.498467
     40 H23         10.2630     1.6180     4.4360 hn         1 O59       0.498467
@<TRIPOS>BOND
     1     1     5 1
     2     1    10 1
     3     2     4 1
     4     3     4 2
     5     4     7 2
     6     4    10 1
     7     5     9 1
     8     6     8 1
     9     8    12 1
    10     8    14 2
    11     8    16 2
    12     9    11 1
    13    11    13 1
    14    12    18 1
    15    13    15 1
    16    15    17 1
    17    17    18 1
    18     1    19 1
    19     1    20 1
    20     2    21 1
    21     2    22 1
    22     5    23 1
    23     5    24 1
    24     6    25 1
    25     6    26 1
    26     9    27 1
    27     9    28 1
    28    11    29 1
    29    11    30 1
    30    13    31 1
    31    13    32 1
    32    15    33 1
    33    15    34 1
    34    17    35 1
    35    17    36 1
    36    18    37 1
    37    18    38 1
    38    39     2 1
    39    40     6 1
@<TRIPOS>SUBSTRUCTURE
     1 O59         1 TEMP              0 ****  ****    0 ROOT
