@<TRIPOS>MOLECULE
O5U
   70    73     1     0     0
SMALL
bcc


@<TRIPOS>ATOM
      1 C1           0.0000     0.0000     0.0000 ca         1 O5U      -0.120000
      2 C2           1.3820     0.0000     0.0000 ca         1 O5U      -0.105000
      3 C3          -0.6900     0.0010     1.1970 ca         1 O5U      -0.100000
      4 C4           2.0710     0.0000     1.1960 ca         1 O5U      -0.057000
      5 C5           3.3370     2.6140     2.2710 ca         1 O5U      -0.130000
      6 C6           4.4160     2.9920     1.4890 ca         1 O5U      -0.141000
      7 C7           4.8130     1.3790     3.7110 ca         1 O5U      -0.077600
      8 C8           0.0010     0.0020     2.3980 ca         1 O5U      -0.119300
      9 C9           1.3830     0.0010     2.3980 ca         1 O5U      -0.064300
     10 C10          3.5270     1.8140     3.3760 ca         1 O5U      -0.105300
     11 C11          5.6970     2.5690     1.8070 ca         1 O5U       0.066100
     12 C12          5.9050     1.7630     2.9190 ca         1 O5U       0.091100
     13 C16         -0.5110     0.0020     3.8230 c3         1 O5U       0.026900
     14 C17          8.1540     1.4300     2.2350 c3         1 O5U       0.159400
     15 C18          1.8940     0.0020     3.8220 c3         1 O5U      -0.010400
     16 C19          0.6920    -0.4380     4.6840 c3         1 O5U       0.014700
     17 C20          8.0510     2.8120     1.5770 c3         1 O5U       0.126100
     18 C21          2.3490     1.4060     4.2220 c3         1 O5U       0.030900
     19 C24          9.1000     2.9370     0.4690 c3         1 O5U      -0.038400
     20 C25         -0.7480    -0.3760     9.3750 c3         1 O5U      -0.110400
     21 C26         -0.7490     0.3520    10.7210 c3         1 O5U      -0.080400
     22 C27         -1.5450    -0.4640    11.7410 c3         1 O5U       0.027600
     23 C28         -1.5450     0.2640    13.0880 c3         1 O5U      -0.062200
     24 N29          0.6920     0.2590     5.9730 ns         1 O5U      -0.153900
     25 N30         -2.3100    -0.5200    14.0670 nz         1 O5U       0.077400
     26 O31          5.1540     1.0790     6.1140 o          1 O5U      -0.894800
     27 O32         10.2690     5.6450    -1.8360 o          1 O5U      -0.904800
     28 O33          5.0720    -0.6840     4.7670 o          1 O5U      -0.894800
     29 O35         10.7940     3.5270    -1.4820 o          1 O5U      -0.904800
     30 O36          7.1510     1.3430     3.2530 os         1 O5U      -0.272900
     31 O37          6.7400     2.9470     1.0170 os         1 O5U      -0.294900
     32 H1          -0.5420     0.0000    -0.9380 ha         1 O5U       0.092000
     33 H2           1.9240    -0.0010    -0.9380 ha         1 O5U       0.104000
     34 H3          -1.7730     0.0010     1.1970 ha         1 O5U       0.088000
     35 H4           3.1540    -0.0000     1.1950 ha         1 O5U       0.134000
     36 H5           2.3400     2.9500     2.0140 ha         1 O5U       0.091000
     37 H6           4.2570     3.6210     0.6210 ha         1 O5U       0.106000
     38 H161        -1.3250    -0.7050     3.9280 hc         1 O5U       0.015200
     39 H162        -0.8300     0.9980     4.1060 hc         1 O5U       0.015200
     40 H18          2.7070    -0.7070     3.9270 hc         1 O5U       0.094700
     41 H211         1.5360     2.1060     4.0700 hc         1 O5U       0.023700
     42 H212         2.6370     1.4090     5.2670 hc         1 O5U       0.023700
     43 H221        -0.4060     1.4160     8.2380 hc         1 O5U       0.034200
     44 H222         1.0680     0.5550     8.7010 hc         1 O5U       0.034200
     45 H29          1.2000     1.1140     6.0790 hn         1 O5U       0.208500
     46 H231         8.0030     4.2590    -0.2030 hc         1 O5U       0.014700
     47 H232         9.3000     5.0650     0.6900 hc         1 O5U       0.014700
     48 H19          0.6920    -1.5130     4.8200 h1         1 O5U       0.064700
     49 H171         9.1350     1.3110     2.6800 h1         1 O5U       0.020700
     50 H172         7.9880     0.6590     1.4930 h1         1 O5U       0.020700
     51 H20          8.1790     3.5690     2.3410 h1         1 O5U       0.023700
     52 H241         8.8780     2.2280    -0.3200 hc         1 O5U       0.027700
     53 H242        10.0820     2.7270     0.8770 hc         1 O5U       0.027700
     54 H251        -0.3850    -1.3270     9.0040 hc         1 O5U       0.060200
     55 H252        -1.7830    -0.3380     9.0560 hc         1 O5U       0.060200
     56 H261        -1.3940     1.2130    10.5940 hc         1 O5U       0.058200
     57 H262         0.2170     0.7560    10.4410 hc         1 O5U       0.058200
     58 H271        -2.5640    -0.5810    11.3940 hc         1 O5U       0.030200
     59 H272        -1.0890    -1.4400    11.8580 hc         1 O5U       0.030200
     60 H281        -2.0000     1.2400    12.9710 hx         1 O5U       0.085700
     61 H282        -0.5250     0.3810    13.4350 hx         1 O5U       0.085700
     62 H301        -1.8890    -1.4210    14.1750 hn         1 O5U       0.218800
     63 H302        -2.3100    -0.0440    14.9480 hn         1 O5U       0.218800
     64 C23          9.0770     4.3570    -0.0990 c3         1 O5U      -0.136400
     65 C14          0.0470    -0.2770     7.0280 c          1 O5U       0.571100
     66 H303        -3.2510    -0.6280    13.7460 hn         1 O5U       0.218800
     67 C13          5.0210     0.5230     4.8930 c          1 O5U       0.991200
     68 C15         10.1090     4.4790    -1.1900 c          1 O5U       1.001600
     69 C22          0.0490     0.4390     8.3540 c3         1 O5U      -0.121400
     70 O34         -0.5320    -1.3350     6.9110 o          1 O5U      -0.687100
@<TRIPOS>BOND
     1     1     2 ar  
     2     1     3 ar  
     3     1    32 1   
     4     2     4 ar  
     5     2    33 1   
     6     3     8 ar  
     7     3    34 1   
     8     4     9 ar  
     9     4    35 1   
    10     5     6 ar  
    11     5    10 ar  
    12     5    36 1   
    13     6    11 ar  
    14     6    37 1   
    15     7    10 ar  
    16     7    12 ar  
    17     7    67 1   
    18     8     9 ar  
    19     8    13 1   
    20     9    15 1   
    21    10    18 1   
    22    11    12 ar  
    23    11    31 1   
    24    12    30 1   
    25    13    16 1   
    26    13    38 1   
    27    13    39 1   
    28    14    17 1   
    29    14    30 1   
    30    14    49 1   
    31    14    50 1   
    32    15    16 1   
    33    15    18 1   
    34    15    40 1   
    35    16    24 1   
    36    16    48 1   
    37    17    19 1   
    38    17    31 1   
    39    17    51 1   
    40    18    41 1   
    41    18    42 1   
    42    19    52 1   
    43    19    53 1   
    44    19    64 1   
    45    20    21 1   
    46    20    54 1   
    47    20    55 1   
    48    20    69 1   
    49    21    22 1   
    50    21    56 1   
    51    21    57 1   
    52    22    23 1   
    53    22    58 1   
    54    22    59 1   
    55    23    25 1   
    56    23    60 1   
    57    23    61 1   
    58    24    45 1   
    59    24    65 1   
    60    25    62 1   
    61    25    63 1   
    62    25    66 1   
    63    26    67 1   
    64    27    68 1   
    65    28    67 1   
    66    29    68 1   
    67    43    69 1   
    68    44    69 1   
    69    46    64 1   
    70    47    64 1   
    71    64    68 1   
    72    65    69 1   
    73    65    70 2   
@<TRIPOS>SUBSTRUCTURE
     1 O5U         1 TEMP              0 ****  ****    0 ROOT
