@<TRIPOS>MOLECULE
molecule
   70    73     1     0     0
SMALL
bcc


@<TRIPOS>ATOM
      1 C1           0.0000     0.0000     0.0000 ca         1 O5U      -0.142000
      2 C2           1.3820     0.0000     0.0000 ca         1 O5U      -0.130000
      3 C3          -0.6900     0.0010     1.1970 ca         1 O5U      -0.129000
      4 C4           2.0710     0.0000     1.1960 ca         1 O5U      -0.084000
      5 C5           3.3370     2.6140     2.2710 ca         1 O5U      -0.144000
      6 C6           4.4160     2.9920     1.4890 ca         1 O5U      -0.159000
      7 C7           4.8130     1.3790     3.7110 ca         1 O5U      -0.074600
      8 C8           0.0010     0.0020     2.3980 ca         1 O5U      -0.111300
      9 C9           1.3830     0.0010     2.3980 ca         1 O5U      -0.063300
     10 C10          3.5270     1.8140     3.3760 ca         1 O5U      -0.103300
     11 C11          5.6970     2.5690     1.8070 ca         1 O5U       0.065100
     12 C12          5.9050     1.7630     2.9190 ca         1 O5U       0.079100
     13 C16         -0.5110     0.0020     3.8230 c3         1 O5U      -0.048100
     14 C17          8.1540     1.4300     2.2350 c3         1 O5U       0.097400
     15 C18          1.8940     0.0020     3.8220 c3         1 O5U      -0.035400
     16 C19          0.6920    -0.4380     4.6840 c3         1 O5U       0.115700
     17 C20          8.0510     2.8120     1.5770 c3         1 O5U       0.098100
     18 C21          2.3490     1.4060     4.2220 c3         1 O5U      -0.016100
     19 C24          9.1000     2.9370     0.4690 c3         1 O5U      -0.076400
     20 C25         -0.7480    -0.3760     9.3750 c3         1 O5U      -0.138400
     21 C26         -0.7490     0.3520    10.7210 c3         1 O5U      -0.127400
     22 C27         -1.5450    -0.4640    11.7410 c3         1 O5U      -0.056400
     23 C28         -1.5450     0.2640    13.0880 c3         1 O5U       0.083800
     24 N29          0.6920     0.2590     5.9730 ns         1 O5U      -0.548900
     25 N30         -2.3100    -0.5200    14.0670 nz         1 O5U      -0.812600
     26 O31          5.1540     1.0790     6.1140 o          1 O5U      -0.844300
     27 O32         10.2690     5.6450    -1.8360 o          1 O5U      -0.858800
     28 O33          5.0720    -0.6840     4.7670 o          1 O5U      -0.844300
     29 O35         10.7940     3.5270    -1.4820 o          1 O5U      -0.858800
     30 O36          7.1510     1.3430     3.2530 os         1 O5U      -0.298900
     31 O37          6.7400     2.9470     1.0170 os         1 O5U      -0.322900
     32 H1          -0.5420     0.0000    -0.9380 ha         1 O5U       0.116000
     33 H2           1.9240    -0.0010    -0.9380 ha         1 O5U       0.131000
     34 H3          -1.7730     0.0010     1.1970 ha         1 O5U       0.110000
     35 H4           3.1540    -0.0000     1.1950 ha         1 O5U       0.162000
     36 H5           2.3400     2.9500     2.0140 ha         1 O5U       0.111000
     37 H6           4.2570     3.6210     0.6210 ha         1 O5U       0.130000
     38 H161        -1.3250    -0.7050     3.9280 hc         1 O5U       0.046200
     39 H162        -0.8300     0.9980     4.1060 hc         1 O5U       0.046200
     40 H18          2.7070    -0.7070     3.9270 hc         1 O5U       0.121700
     41 H211         1.5360     2.1060     4.0700 hc         1 O5U       0.046700
     42 H212         2.6370     1.4090     5.2670 hc         1 O5U       0.046700
     43 H221        -0.4060     1.4160     8.2380 hc         1 O5U       0.065200
     44 H222         1.0680     0.5550     8.7010 hc         1 O5U       0.065200
     45 H29          1.2000     1.1140     6.0790 hn         1 O5U       0.341500
     46 H231         8.0030     4.2590    -0.2030 hc         1 O5U       0.038200
     47 H232         9.3000     5.0650     0.6900 hc         1 O5U       0.038200
     48 H19          0.6920    -1.5130     4.8200 h1         1 O5U       0.089700
     49 H171         9.1350     1.3110     2.6800 h1         1 O5U       0.059700
     50 H172         7.9880     0.6590     1.4930 h1         1 O5U       0.059700
     51 H20          8.1790     3.5690     2.3410 h1         1 O5U       0.052700
     52 H241         8.8780     2.2280    -0.3200 hc         1 O5U       0.053200
     53 H242        10.0820     2.7270     0.8770 hc         1 O5U       0.053200
     54 H251        -0.3850    -1.3270     9.0040 hc         1 O5U       0.081700
     55 H252        -1.7830    -0.3380     9.0560 hc         1 O5U       0.081700
     56 H261        -1.3940     1.2130    10.5940 hc         1 O5U       0.085200
     57 H262         0.2170     0.7560    10.4410 hc         1 O5U       0.085200
     58 H271        -2.5640    -0.5810    11.3940 hc         1 O5U       0.064700
     59 H272        -1.0890    -1.4400    11.8580 hc         1 O5U       0.064700
     60 H281        -2.0000     1.2400    12.9710 hx         1 O5U       0.113200
     61 H282        -0.5250     0.3810    13.4350 hx         1 O5U       0.113200
     62 H301        -1.8890    -1.4210    14.1750 hn         1 O5U       0.452133
     63 H302        -2.3100    -0.0440    14.9480 hn         1 O5U       0.452133
     64 C23          9.0770     4.3570    -0.0990 c3         1 O5U      -0.178400
     65 C14          0.0470    -0.2770     7.0280 c          1 O5U       0.661100
     66 H303        -3.2510    -0.6280    13.7460 hn         1 O5U       0.452133
     67 C13          5.0210     0.5230     4.8930 c          1 O5U       0.897200
     68 C15         10.1090     4.4790    -1.1900 c          1 O5U       0.907600
     69 C22          0.0490     0.4390     8.3540 c3         1 O5U      -0.183400
     70 O34         -0.5320    -1.3350     6.9110 o          1 O5U      -0.644100
@<TRIPOS>BOND
     1     1     2 ar
     2     1     3 ar
     3     2     4 ar
     4     3     8 ar
     5     4     9 ar
     6     5     6 ar
     7     5    10 ar
     8     6    11 ar
     9     7    10 ar
    10     7    12 ar
    11     7    67 1
    12     8     9 ar
    13     8    13 1
    14     9    15 1
    15    10    18 1
    16    11    12 ar
    17    11    31 1
    18    12    30 1
    19    67    26 1
    20    67    28 1
    21    65    69 1
    22    65    24 1
    23    65    70 2
    24    68    64 1
    25    68    27 1
    26    68    29 1
    27    13    16 1
    28    14    17 1
    29    14    30 1
    30    15    16 1
    31    15    18 1
    32    16    24 1
    33    17    19 1
    34    17    31 1
    35    69    20 1
    36    64    19 1
    37    20    21 1
    38    21    22 1
    39    22    23 1
    40    23    25 1
    41     1    32 1
    42     2    33 1
    43     3    34 1
    44     4    35 1
    45     5    36 1
    46     6    37 1
    47    13    38 1
    48    13    39 1
    49    15    40 1
    50    18    41 1
    51    18    42 1
    52    69    43 1
    53    69    44 1
    54    24    45 1
    55    64    46 1
    56    64    47 1
    57    16    48 1
    58    14    49 1
    59    14    50 1
    60    17    51 1
    61    19    52 1
    62    19    53 1
    63    20    54 1
    64    20    55 1
    65    21    56 1
    66    21    57 1
    67    22    58 1
    68    22    59 1
    69    23    60 1
    70    23    61 1
    71    25    62 1
    72    25    63 1
    73    66    25 1
@<TRIPOS>SUBSTRUCTURE
     1 O5U         1 TEMP              0 ****  ****    0 ROOT
