@<TRIPOS>MOLECULE
molecule
   46    45     1     0     0
SMALL
bcc


@<TRIPOS>ATOM
      1 C1           0.0000     0.0000     0.0000 c3         1 O60       0.132900
      2 N1          -2.5150     1.5270    -1.0980 nz         1 O60      -0.833000
      3 O1          -2.4780    -0.8500    -0.4350 o          1 O60      -0.521050
      4 S1          -1.9940    -0.0010    -1.4670 s6         1 O60       1.495900
      5 C2           1.5300     0.0000     0.0000 c3         1 O60      -0.075400
      6 N2          12.2060     1.5290     6.8650 nz         1 O60      -0.833000
      7 O2          -2.2880    -0.2040    -2.8420 o          1 O60      -0.521050
      8 S2          11.6850     0.0010     7.2340 s6         1 O60       1.495900
      9 C3           2.0410     0.0000     1.4420 c3         1 O60      -0.082400
     10 O3          -0.4770    -0.0010    -1.3470 os         1 O60      -0.513500
     11 C4           3.5710     0.0000     1.4410 c3         1 O60      -0.077400
     12 O4          10.1680     0.0010     7.1140 os         1 O60      -0.513500
     13 C5           4.0810    -0.0000     2.8840 c3         1 O60      -0.080400
     14 O5          12.1690    -0.8480     6.2030 o          1 O60      -0.521050
     15 C6           5.6110    -0.0000     2.8830 c3         1 O60      -0.080400
     16 O6          11.9800    -0.2010     8.6100 o          1 O60      -0.521050
     17 C7           6.1210    -0.0000     4.3260 c3         1 O60      -0.077400
     18 C8           7.6510     0.0000     4.3250 c3         1 O60      -0.082400
     19 C9           8.1610     0.0010     5.7680 c3         1 O60      -0.075400
     20 C10          9.6920    -0.0000     5.7670 c3         1 O60       0.132900
     21 H1          -0.3610     0.8850     0.5100 h1         1 O60       0.064200
     22 H1A         -0.3610    -0.8840     0.5110 h1         1 O60       0.064200
     23 HN1         -3.3940     1.6970    -1.5440 hn         1 O60       0.497800
     24 HN1A        -2.6220     1.6130    -0.1070 hn         1 O60       0.497800
     25 H2           1.8910    -0.8840    -0.5110 hc         1 O60       0.076450
     26 H2A          1.8910     0.8840    -0.5110 hc         1 O60       0.076450
     27 HN2         12.3130     1.6150     5.8740 hn         1 O60       0.497800
     28 HN2A        13.0860     1.6990     7.3110 hn         1 O60       0.497800
     29 H3           1.6800    -0.8850     1.9530 hc         1 O60       0.050200
     30 H3A          1.6800     0.8850     1.9530 hc         1 O60       0.050200
     31 H4           3.9320    -0.8850     0.9310 hc         1 O60       0.052700
     32 H4A          3.9320     0.8850     0.9310 hc         1 O60       0.052700
     33 H5           3.7200    -0.8850     3.3950 hc         1 O60       0.048200
     34 H5A          3.7200     0.8850     3.3950 hc         1 O60       0.048200
     35 H6           5.9710     0.8850     2.3720 hc         1 O60       0.048200
     36 H6A          5.9710    -0.8850     2.3720 hc         1 O60       0.048200
     37 H7           5.7600     0.8850     4.8370 hc         1 O60       0.052700
     38 H7A          5.7600    -0.8850     4.8370 hc         1 O60       0.052700
     39 H8           8.0120    -0.8850     3.8150 hc         1 O60       0.050200
     40 H8A          8.0120     0.8840     3.8140 hc         1 O60       0.050200
     41 H9           7.8000    -0.8830     6.2800 hc         1 O60       0.076450
     42 H9A          7.8010     0.8860     6.2780 hc         1 O60       0.076450
     43 H10         10.0520    -0.8850     5.2570 h1         1 O60       0.064200
     44 H10A        10.0530     0.8840     5.2560 h1         1 O60       0.064200
     45 H13         -1.8460     2.1960    -1.4250 hn         1 O60       0.497800
     46 H23         11.5330     2.1970     7.1840 hn         1 O60       0.497800
@<TRIPOS>BOND
     1     1     5 1
     2     1    10 1
     3     2     4 1
     4     3     4 2
     5     4     7 2
     6     4    10 1
     7     5     9 1
     8     6     8 1
     9     8    12 1
    10     8    14 2
    11     8    16 2
    12     9    11 1
    13    11    13 1
    14    12    20 1
    15    13    15 1
    16    15    17 1
    17    17    18 1
    18    18    19 1
    19    19    20 1
    20     1    21 1
    21     1    22 1
    22     2    23 1
    23     2    24 1
    24     5    25 1
    25     5    26 1
    26     6    27 1
    27     6    28 1
    28     9    29 1
    29     9    30 1
    30    11    31 1
    31    11    32 1
    32    13    33 1
    33    13    34 1
    34    15    35 1
    35    15    36 1
    36    17    37 1
    37    17    38 1
    38    18    39 1
    39    18    40 1
    40    19    41 1
    41    19    42 1
    42    20    43 1
    43    20    44 1
    44    45     2 1
    45    46     6 1
@<TRIPOS>SUBSTRUCTURE
     1 O60         1 TEMP              0 ****  ****    0 ROOT
