@<TRIPOS>MOLECULE
O62
   59    63     1     0     0
SMALL
bcc


@<TRIPOS>ATOM
      1 C2          0.3950    0.1060    0.3850 c2        1 O62     -0.056000
      2 C3          1.7660    0.1680    0.5270 c2        1 O62     -0.167000
      3 C4          1.9810    0.0970    1.9810 c2        1 O62     -0.055000
      4 C6         -2.1550    0.7650   -2.8410 c1        1 O62     -0.080000
      5 C10         3.5350    0.8360    3.8120 c2        1 O62     -0.039000
      6 C11         4.9960    0.7290    4.1380 cx        1 O62     -0.154000
      7 C12         5.6240   -0.5700    4.5390 cu        1 O62     -0.076000
      8 C13         5.3910   -0.4450    3.2460 cu        1 O62     -0.169000
      9 C14         4.4620   -0.6360    2.1290 c3        1 O62      0.073000
     10 C22         6.3010    3.4580   -7.7480 ca        1 O62     -0.051000
     11 C24         5.4950    1.8550   -6.0980 cp        1 O62     -0.070000
     12 C25         6.3660    0.8750   -6.6510 ca        1 O62     -0.166000
     13 C26         7.1800    1.1780   -7.7120 ca        1 O62     -0.074000
     14 C27         4.6420    1.5080   -4.9650 cq        1 O62      0.001000
     15 C37         2.7980    0.2880   -0.5150 c3        1 O62      0.044000
     16 O1         -0.1710    0.0040    1.6710 os        1 O62     -0.061000
     17 N5          0.7740    0.0010    2.5870 n2        1 O62     -0.004000
     18 C7         -2.0290   -0.6250   -2.4620 c3        1 O62     -0.282000
     19 C8         -0.9960    1.6210   -2.9410 c3        1 O62     -0.282000
     20 C9          3.2450    0.1440    2.6690 c2        1 O62     -0.090000
     21 C17         7.9650    4.1050   -9.9040 ca        1 O62     -0.130000
     22 C18         7.0840    5.0710   -9.3740 ca        1 O62     -0.126000
     23 C19         6.2660    4.7590   -8.3150 ca        1 O62     -0.161000
     24 C20         8.0220    2.8240   -9.3880 ca        1 O62     -0.073000
     25 C21         7.1780    2.4790   -8.2930 ca        1 O62     -0.012000
     26 C23         5.4710    3.1210   -6.6450 ca        1 O62     -0.117000
     27 C28         4.4290    2.4290   -3.9260 ca        1 O62     -0.118500
     28 C29         3.6240    2.1030   -2.8390 ca        1 O62     -0.144500
     29 C30         3.0200    0.8410   -2.7910 ca        1 O62      0.012000
     30 C31         3.2190   -0.0930   -3.8150 ca        1 O62     -0.144500
     31 C32         4.0240    0.2490   -4.8970 ca        1 O62     -0.118500
     32 O33         2.1300    0.5220   -1.7670 os        1 O62     -0.238000
     33 O35         8.7040    0.6190  -10.0820 o         1 O62     -0.558000
     34 O36        10.0860    2.3260  -10.4660 o         1 O62     -0.558000
     35 H6         -0.3030    0.1220   -0.4480 h4        1 O62      0.214000
     36 H11         5.5290    1.6820    4.2570 hc        1 O62      0.150000
     37 H12         6.0360   -1.1080    5.3690 ha        1 O62      0.203000
     38 H13         4.8190   -0.2040    1.1600 h1        1 O62      0.148000
     39 H25         6.3830   -0.1310   -6.2080 ha        1 O62      0.119000
     40 H26         7.8510    0.4190   -8.1610 ha        1 O62      0.197000
     41 H37         3.4920    1.1440   -0.2910 h1        1 O62      0.092000
     42 H37A        3.3920   -0.6640   -0.5970 h1        1 O62      0.092000
     43 H7         -0.9910   -1.0000   -2.2650 hc        1 O62      0.107500
     44 H7A        -2.6530   -0.7900   -1.5430 hc        1 O62      0.107500
     45 H7B        -2.4810   -1.2460   -3.2820 hc        1 O62      0.107500
     46 H8         -0.8760    1.8870   -4.0280 hc        1 O62      0.107500
     47 H8A        -1.2040    2.5790   -2.3950 hc        1 O62      0.107500
     48 H8B        -0.0240    1.1960   -2.5730 hc        1 O62      0.107500
     49 H17         8.6390    4.3700  -10.7350 ha        1 O62      0.151000
     50 H18         7.0640    6.0780   -9.8160 ha        1 O62      0.109000
     51 H19         5.5780    5.5030   -7.8910 ha        1 O62      0.108000
     52 H23         4.7980    3.8930   -6.2420 ha        1 O62      0.114000
     53 H28         4.9130    3.4170   -3.9730 ha        1 O62      0.145000
     54 H29         3.4560    2.8250   -2.0280 ha        1 O62      0.135500
     55 H31         2.7320   -1.0770   -3.7610 ha        1 O62      0.135500
     56 H32         4.1790   -0.4730   -5.7140 ha        1 O62      0.145000
     57 CL15        2.5050    1.7960    4.7070 cl        1 O62      0.049000
     58 C34         9.0090    1.8440  -10.0180 c2        1 O62      0.357000
     59 CL16        4.1050   -2.3250    1.8260 cl        1 O62     -0.066000
@<TRIPOS>BOND
     1    1    2 1   
     2    1   16 1   
     3    1   35 1   
     4    2    3 1   
     5    2   15 1   
     6    3   17 1   
     7    3   20 1   
     8    4   18 1   
     9    4   19 1   
    10    5    6 1   
    11    5   20 1   
    12    5   57 1   
    13    6    7 1   
    14    6    8 1   
    15    6   36 1   
    16    7    8 1   
    17    7   37 1   
    18    8    9 1   
    19    9   20 1   
    20    9   38 1   
    21    9   59 1   
    22   10   23 1   
    23   10   25 1   
    24   10   26 1   
    25   11   12 1   
    26   11   14 1   
    27   11   26 1   
    28   12   13 1   
    29   12   39 1   
    30   13   25 1   
    31   13   40 1   
    32   14   27 1   
    33   14   31 1   
    34   15   32 1   
    35   15   41 1   
    36   15   42 1   
    37   16   17 1   
    38   18   43 1   
    39   18   44 1   
    40   18   45 1   
    41   19   46 1   
    42   19   47 1   
    43   19   48 1   
    44   21   22 1   
    45   21   24 1   
    46   21   49 1   
    47   22   23 1   
    48   22   50 1   
    49   23   51 1   
    50   24   25 1   
    51   24   58 1   
    52   26   52 1   
    53   27   28 1   
    54   27   53 1   
    55   28   29 1   
    56   28   54 1   
    57   29   30 1   
    58   29   32 1   
    59   30   31 1   
    60   30   55 1   
    61   31   56 1   
    62   33   58 1   
    63   34   58 1   
@<TRIPOS>SUBSTRUCTURE
     1 O62         1 TEMP              0 ****  ****    0 ROOT
