@<TRIPOS>MOLECULE
molecule
   30    30     1     0     0
SMALL
bcc


@<TRIPOS>ATOM
      1 C1           0.0000     0.0000     0.0000 ca         1 O64      -0.190300
      2 C2           1.3820     0.0000     0.0000 ca         1 O64      -0.054000
      3 C3           2.0820     0.0000     1.1950 ca         1 O64      -0.145000
      4 C4           1.4020    -0.0010     2.3950 ca         1 O64      -0.069000
      5 C5           0.0060    -0.0000     2.4050 ca         1 O64      -0.143600
      6 C6          -0.6940    -0.0000     1.1950 ca         1 O64       0.118400
      7 Cl7         -2.4300     0.0000     1.1940 cl         1 O64      -0.026400
      8 C8          -0.7280    -0.0000     3.6870 c          1 O64       0.678700
      9 N9          -0.0490    -0.0020     4.8510 ns         1 O64      -0.566900
     10 O10         -1.9430     0.0000     3.6920 o          1 O64      -0.586100
     11 C11         -0.7760    -0.0010     6.1230 c3         1 O64       0.000700
     12 C12         -1.1340     1.4140     6.4980 c          1 O64       0.552900
     13 O13         -0.8130     2.3280     5.7780 o          1 O64      -0.503100
     14 C14          0.1050    -0.6120     7.2140 c3         1 O64      -0.091400
     15 C15          0.3640    -2.0860     6.8960 c3         1 O64      -0.091100
     16 C16         -0.7530     0.0050    -1.3060 c3         1 O64       0.678200
     17 F17          0.1580     0.0110    -2.3680 f          1 O64      -0.217300
     18 F18         -1.5570    -1.1360    -1.3850 f          1 O64      -0.217300
     19 F19         -1.5570     1.1490    -1.3750 f          1 O64      -0.217300
     20 H2           1.9210     0.0000    -0.9400 ha         1 O64       0.158000
     21 H3           3.1650    -0.0000     1.1870 ha         1 O64       0.145000
     22 H4           1.9510    -0.0010     3.3290 ha         1 O64       0.136000
     23 HN9          0.9510     0.0360     4.8470 hn         1 O64       0.317500
     24 H11         -1.6820    -0.5870     6.0200 h1         1 O64       0.103700
     25 H12         -1.7110     1.6070     7.3940 h4         1 O64       0.002200
     26 H14          1.0480    -0.0810     7.2560 hc         1 O64       0.052200
     27 H14A        -0.3980    -0.5320     8.1700 hc         1 O64       0.052200
     28 H15         -0.4720    -2.4870     6.3350 hc         1 O64       0.040700
     29 H15A         0.4760    -2.6400     7.8200 hc         1 O64       0.040700
     30 H15B         1.2690    -2.1750     6.3090 hc         1 O64       0.040700
@<TRIPOS>BOND
     1     1     2 ar
     2     1     6 ar
     3     1    16 1
     4     2     3 ar
     5     2    20 1
     6     3     4 ar
     7     3    21 1
     8     4     5 ar
     9     4    22 1
    10     5     6 ar
    11     5     8 1
    12     6     7 1
    13     8     9 1
    14     8    10 2
    15     9    11 1
    16     9    23 1
    17    11    12 1
    18    11    14 1
    19    11    24 1
    20    12    13 2
    21    12    25 1
    22    14    15 1
    23    14    26 1
    24    14    27 1
    25    15    28 1
    26    15    29 1
    27    15    30 1
    28    16    17 1
    29    16    18 1
    30    16    19 1
@<TRIPOS>SUBSTRUCTURE
     1 O64         1 TEMP              0 ****  ****    0 ROOT
