@<TRIPOS>MOLECULE
O73
   55    57     1     0     0
SMALL
bcc


@<TRIPOS>ATOM
      1 C1           0.0000     0.0000     0.0000 ca         1 O73       0.035000
      2 C2           1.3810     0.0000     0.0000 ca         1 O73      -0.201000
      3 C3           2.0740     0.0000     1.2030 ca         1 O73       0.210100
      4 C4           1.3770     0.0000     2.4010 ca         1 O73      -0.201000
      5 C5          -0.0040     0.0010     2.3960 ca         1 O73       0.035000
      6 C6          -0.6920     0.0000     1.1970 ca         1 O73      -0.498200
      7 N7          -2.1720     0.0010     1.1950 no         1 O73       1.054200
      8 O8          -2.7790     0.0020     0.1380 o          1 O73      -0.453000
      9 O9          -2.7830     0.0010     2.2480 o          1 O73      -0.453000
     10 O10          3.4330    -0.0010     1.2050 os         1 O73      -0.294900
     11 C11          4.0800    -0.0010     2.4790 c3         1 O73       0.286700
     12 C12          5.5740    -0.0030     2.2840 cc         1 O73      -0.106300
     13 C13          6.3710     1.0900     2.1810 cd         1 O73      -0.292600
     14 N14          7.6550     0.6880     2.0140 na         1 O73       0.570900
     15 C15          7.7000    -0.6770     2.0070 cd         1 O73      -0.381900
     16 C16          6.4010    -1.1380     2.1820 cc         1 O73      -0.201600
     17 C17          8.8020    -1.6430     1.8640 c          1 O73       0.699900
     18 C18          8.5280    -3.0820     1.8990 cc         1 O73      -0.330200
     19 C19          7.2690    -3.5430     2.0620 cd         1 O73      -0.023200
     20 C20          6.1390    -2.5890     2.2240 c          1 O73       0.680900
     21 C21          5.9030     2.5210     2.2420 c3         1 O73       0.098200
     22 C22          8.8100     1.5750     1.8630 c3         1 O73      -0.059400
     23 O23          9.9420    -1.2450     1.7150 o          1 O73      -0.585100
     24 O24          5.0080    -3.0030     2.3730 o          1 O73      -0.563100
     25 N25          7.0320    -4.9010     2.0920 nu         1 O73      -0.378000
     26 C26          8.1450    -5.8420     1.9460 c3         1 O73       0.161800
     27 C27          7.6130    -7.2750     2.0140 c3         1 O73      -0.028400
     28 C28          8.7750    -8.2580     1.8620 c3         1 O73      -0.030400
     29 C29          8.2440    -9.6910     1.9290 c3         1 O73      -0.052200
     30 N30          9.3600   -10.6350     1.7830 nz         1 O73       0.088400
     31 H1          -0.5410    -0.0000    -0.9380 ha         1 O73       0.132000
     32 H2           1.9230    -0.0000    -0.9380 ha         1 O73       0.129000
     33 H4           1.9160     0.0000     3.3410 ha         1 O73       0.129000
     34 H5          -0.5490     0.0010     3.3330 ha         1 O73       0.132000
     35 H11          3.7890     0.8850     3.0320 h1         1 O73       0.016200
     36 H11A         3.7870    -0.8840     3.0330 h1         1 O73       0.016200
     37 H18          9.3440    -3.7850     1.7820 ha         1 O73       0.130000
     38 H21          5.5220     2.8180     1.2720 hc         1 O73       0.016700
     39 H21A         5.1180     2.6140     2.9820 hc         1 O73       0.016700
     40 H21B         6.7340     3.1610     2.5140 hc         1 O73       0.016700
     41 H22          8.4930     2.5060     1.4090 h1         1 O73       0.042700
     42 H22A         9.2400     1.7760     2.8360 h1         1 O73       0.042700
     43 H22B         9.5510     1.1000     1.2320 h1         1 O73       0.042700
     44 HN25         6.0990    -5.2440     2.2050 hn         1 O73       0.309800
     45 H26          8.8590    -5.6830     2.7450 h1         1 O73       0.024700
     46 H26A         8.6310    -5.6810     0.9910 h1         1 O73       0.024700
     47 H27          7.1280    -7.4350     2.9690 hc         1 O73       0.033700
     48 H27A         6.8990    -7.4330     1.2150 hc         1 O73       0.033700
     49 H28          9.2610    -8.0970     0.9070 hc         1 O73       0.036700
     50 H28A         9.4890    -8.0990     2.6610 hc         1 O73       0.036700
     51 H29          7.7590    -9.8520     2.8840 hx         1 O73       0.087200
     52 H29A         7.5300    -9.8500     1.1300 hx         1 O73       0.087200
     53 HN30         9.8040   -10.4910     0.8980 hn         1 O73       0.224467
     54 HN3A         9.0140   -11.5720     1.8340 hn         1 O73       0.224467
     55 H303        10.0230   -10.4840     2.5170 hn         1 O73       0.224467
@<TRIPOS>BOND
     1     1     2 ar  
     2     1     6 ar  
     3     1    31 1   
     4     2     3 ar  
     5     2    32 1   
     6     3     4 ar  
     7     3    10 1   
     8     4     5 ar  
     9     4    33 1   
    10     5     6 ar  
    11     5    34 1   
    12     6     7 1   
    13     7     8 1   
    14     7     9 1   
    15    10    11 1   
    16    11    12 1   
    17    11    35 1   
    18    11    36 1   
    19    12    13 2   
    20    12    16 1   
    21    13    14 1   
    22    13    21 1   
    23    14    15 1   
    24    14    22 1   
    25    15    16 2   
    26    15    17 1   
    27    16    20 1   
    28    17    18 1   
    29    17    23 2   
    30    18    19 2   
    31    18    37 1   
    32    19    20 1   
    33    19    25 1   
    34    20    24 2   
    35    21    38 1   
    36    21    39 1   
    37    21    40 1   
    38    22    41 1   
    39    22    42 1   
    40    22    43 1   
    41    25    26 1   
    42    25    44 1   
    43    26    27 1   
    44    26    45 1   
    45    26    46 1   
    46    27    28 1   
    47    27    47 1   
    48    27    48 1   
    49    28    29 1   
    50    28    49 1   
    51    28    50 1   
    52    29    30 1   
    53    29    51 1   
    54    29    52 1   
    55    30    53 1   
    56    30    54 1   
    57    30    55 1   
@<TRIPOS>SUBSTRUCTURE
     1 O73         1 TEMP              0 ****  ****    0 ROOT
