@<TRIPOS>MOLECULE
O74
   39    42     1     0     0
SMALL
bcc


@<TRIPOS>ATOM
      1 Cl           0.0000     0.0000     0.0000 cl         1 O74      -0.024400
      2 CAB          1.7360     0.0000     0.0000 ca         1 O74      -0.061600
      3 CAC          2.4280     0.0000     1.1960 ca         1 O74      -0.079000
      4 CAD          3.8110     0.0000     1.1960 ca         1 O74      -0.093000
      5 CAG          4.5060     0.0000     0.0010 ca         1 O74      -0.076000
      6 CAF          3.8210    -0.0000    -1.1990 ca         1 O74      -0.090000
      7 CAE          2.4330    -0.0070    -1.2040 ca         1 O74      -0.030400
      8 NAJ          1.7360    -0.0130    -2.4160 nu         1 O74      -0.231300
      9 C6           2.2830     0.5780    -3.5230 cc         1 O74       0.558200
     10 N1           3.4160     1.2680    -3.4350 nd         1 O74      -0.710000
     11 C5           1.6340     0.4610    -4.8340 ca         1 O74      -0.239300
     12 CAI          0.4460    -0.2500    -5.0070 ca         1 O74      -0.046000
     13 CAH         -0.1180    -0.3290    -6.2490 ca         1 O74      -0.120000
     14 CAK          0.4790     0.2910    -7.3400 ca         1 O74      -0.032000
     15 CAO          1.6530     0.9980    -7.1920 ca         1 O74      -0.125000
     16 C4           2.2430     1.0910    -5.9370 ca         1 O74      -0.078300
     17 N3           3.4160     1.7860    -5.7330 na         1 O74       0.131100
     18 C2           3.9640     1.8490    -4.4890 cd         1 O74       0.448500
     19 CAS          5.2160     2.5920    -4.3100 cc         1 O74      -0.320200
     20 CAT          5.9010     2.5400    -3.0900 cc         1 O74       0.009000
     21 CAW          7.0730     3.2390    -2.9280 cd         1 O74      -0.229000
     22 CAY          7.5910     4.0020    -3.9670 cd         1 O74      -0.010000
     23 CAX          6.9400     4.0710    -5.1770 cc         1 O74      -0.248200
     24 CAV          5.7470     3.3640    -5.3700 c          1 O74       0.604500
     25 OAU          5.1130     3.4220    -6.5420 o          1 O74      -0.807100
     26 HAC          1.8870     0.0000     2.1340 ha         1 O74       0.118000
     27 HAD          4.3510     0.0000     2.1360 ha         1 O74       0.110000
     28 HAG          5.5890     0.0030     0.0050 ha         1 O74       0.112000
     29 HAF          4.3660    -0.0030    -2.1340 ha         1 O74       0.151000
     30 HAI         -0.0270    -0.7360    -4.1620 ha         1 O74       0.105000
     31 HAH         -1.0410    -0.8810    -6.3850 ha         1 O74       0.113000
     32 HAK          0.0180     0.2170    -8.3170 ha         1 O74       0.110000
     33 HAO          2.1120     1.4780    -8.0470 ha         1 O74       0.131000
     34 HAT          5.5060     1.9480    -2.2730 ha         1 O74       0.103000
     35 HAW1         7.5980     3.1950    -1.9820 ha         1 O74       0.101000
     36 HAY          8.5150     4.5490    -3.8230 ha         1 O74       0.088000
     37 HAX          7.3530     4.6670    -5.9820 ha         1 O74       0.119000
     38 H3           3.8670     2.2420    -6.5020 hn         1 O74       0.240700
     39 H14          0.8170    -0.4060    -2.4620 hn         1 O74       0.297800
@<TRIPOS>BOND
     1     1     2 1   
     2     2     3 ar  
     3     2     7 ar  
     4     3     4 ar  
     5     3    26 1   
     6     4     5 ar  
     7     4    27 1   
     8     5     6 ar  
     9     5    28 1   
    10     6     7 ar  
    11     6    29 1   
    12     7     8 1   
    13     8     9 1   
    14     8    39 1   
    15     9    10 2   
    16     9    11 1   
    17    10    18 1   
    18    11    12 ar  
    19    11    16 ar  
    20    12    13 ar  
    21    12    30 1   
    22    13    14 ar  
    23    13    31 1   
    24    14    15 ar  
    25    14    32 1   
    26    15    16 ar  
    27    15    33 1   
    28    16    17 1   
    29    17    18 1   
    30    17    38 1   
    31    18    19 2   
    32    19    20 1   
    33    19    24 1   
    34    20    21 2   
    35    20    34 1   
    36    21    22 1   
    37    21    35 1   
    38    22    23 2   
    39    22    36 1   
    40    23    24 1   
    41    23    37 1   
    42    24    25 2   
@<TRIPOS>SUBSTRUCTURE
     1 O74         1 TEMP              0 ****  ****    0 ROOT
