@<TRIPOS>MOLECULE
O75
   64    67     1     0     0
SMALL
bcc


@<TRIPOS>ATOM
      1 C1           0.0000     0.0000     0.0000 c2         1 O75       0.020000
      2 N2           1.3290     0.0000     0.0000 n2         1 O75      -0.067000
      3 C3           2.0050     0.0000     1.1410 c2         1 O75       0.108000
      4 N4           1.3880    -0.0000     2.3150 n2         1 O75      -0.060000
      5 C5           0.0680    -0.0010     2.3910 c2         1 O75       0.023000
      6 C6          -0.6770     0.0000     1.2240 c2         1 O75      -0.211000
      7 C7           3.4360     0.0000     1.1040 c1         1 O75      -0.098000
      8 N8           4.5710    -0.0000     1.0950 n1         1 O75      -0.012000
      9 C9          -0.6180    -0.0010     3.7330 c3         1 O75      -0.076000
     10 C10         -0.1130    -1.1830     4.5630 c3         1 O75      -0.103000
     11 C11         -0.8090    -1.1830     5.9260 c3         1 O75      -0.112000
     12 C12         -0.7530     0.0060    -1.2780 ca         1 O75      -0.051000
     13 C13         -0.0690     0.0070    -2.4900 ca         1 O75       0.020000
     14 C14         -0.7830     0.0130    -3.6870 ca         1 O75      -0.110000
     15 C15         -2.1790     0.0180    -3.6620 ca         1 O75      -0.041000
     16 C16         -2.8500     0.0180    -2.4570 ca         1 O75      -0.255000
     17 C17         -2.1470     0.0060    -1.2670 ca         1 O75      -0.021000
     18 C18         -4.3570     0.0250    -2.4360 c3         1 O75       0.423000
     19 F19         -4.8200    -1.1180    -1.7740 f          1 O75      -0.135000
     20 F20         -4.8110     1.1670    -1.7670 f          1 O75      -0.135000
     21 F21         -4.8410     0.0300    -3.7490 f          1 O75      -0.135000
     22 C22         -0.0640     0.0130    -4.9790 c2         1 O75       0.278000
     23 O23          0.8760     0.7660    -5.1510 o          1 O75      -0.402000
     24 N24         -0.4510    -0.8190    -5.9650 n          1 O75       0.014000
     25 C25          0.3390    -0.9130    -7.1960 c3         1 O75      -0.011000
     26 C26          1.3850    -1.9860    -7.0420 ca         1 O75      -0.086000
     27 C27          1.0950    -3.2900    -7.4030 ca         1 O75      -0.068000
     28 C28          2.0540    -4.2740    -7.2610 ca         1 O75      -0.109000
     29 C29          3.3030    -3.9570    -6.7590 ca         1 O75      -0.150000
     30 C30          3.5920    -2.6540    -6.3990 ca         1 O75      -0.109000
     31 C31          2.6350    -1.6680    -6.5460 ca         1 O75      -0.068000
     32 C32         -1.6600    -1.6310    -5.8060 c3         1 O75      -0.022000
     33 C33         -2.8300    -0.9480    -6.5180 c3         1 O75      -0.618000
     34 N34         -4.0670    -1.6940    -6.2520 nx         1 O75       0.175000
     35 C35         -5.2430    -0.9450    -6.7160 c3         1 O75      -0.184000
     36 C36         -4.0180    -3.0290    -6.8630 c3         1 O75      -0.184000
     37 H6          -1.7220    -0.0740     0.9450 ha         1 O75       0.148000
     38 H9          -1.5770    -0.4970     3.6510 hc         1 O75       0.066000
     39 H9A         -0.8950     1.0190     3.9720 hc         1 O75       0.066000
     40 H10          0.9150    -1.5060     4.4550 hc         1 O75       0.050500
     41 H10A        -0.5100    -1.7900     3.7580 hc         1 O75       0.050500
     42 H11          0.0140    -0.7030     6.4410 hc         1 O75       0.055667
     43 H11A        -1.4400    -0.3020     5.9400 hc         1 O75       0.055667
     44 H11B        -1.0260    -2.1700     6.3160 hc         1 O75       0.055667
     45 H13          0.9870     0.2270    -2.5950 ha         1 O75       0.150000
     46 H15         -2.9680    -0.1210    -4.3920 ha         1 O75       0.153000
     47 H17         -2.8360    -0.2110    -0.4600 ha         1 O75       0.121000
     48 H25          0.3080     0.0600    -7.6710 h1         1 O75       0.066500
     49 H25A        -0.3790    -1.2720    -7.9240 h1         1 O75       0.066500
     50 H27          0.0960    -3.5300    -7.7440 ha         1 O75       0.117000
     51 H28          2.0490    -5.3410    -7.0690 ha         1 O75       0.112500
     52 H29          3.9550    -4.6620    -6.2580 ha         1 O75       0.105000
     53 H30          4.6220    -2.6830    -6.0650 ha         1 O75       0.112500
     54 H31          2.6120    -0.8680    -5.8150 ha         1 O75       0.117000
     55 H32         -2.0030    -1.7980    -4.7920 h1         1 O75       0.060500
     56 H32A        -1.4200    -2.6360    -6.1320 h1         1 O75       0.060500
     57 H33         -2.4820    -0.0610    -7.0350 hx         1 O75       0.177000
     58 H33A        -3.7450    -0.8290    -5.9510 DU         1 O75       0.240000
     59 H35         -5.8570    -1.7160    -6.2670 hx         1 O75       0.060333
     60 H35A        -5.3720    -1.0470    -7.7870 hx         1 O75       0.060333
     61 H35B        -5.5060     0.0970    -6.5850 hx         1 O75       0.060333
     62 H36         -4.7350    -3.2410    -7.6460 hx         1 O75       0.060333
     63 H36A        -4.4730    -3.8070    -6.2620 hx         1 O75       0.060333
     64 H36B        -3.1660    -3.6590    -7.0890 hx         1 O75       0.060333
@<TRIPOS>BOND
     1     1     2 1   
     2     1     6 1   
     3     1    12 1   
     4     2     3 1   
     5     3     4 1   
     6     3     7 1   
     7     4     5 1   
     8     5     6 1   
     9     5     9 1   
    10     6    37 1   
    11     7     8 1   
    12     9    10 1   
    13     9    38 1   
    14     9    39 1   
    15    10    11 1   
    16    10    40 1   
    17    10    41 1   
    18    11    42 1   
    19    11    43 1   
    20    11    44 1   
    21    12    13 1   
    22    12    17 1   
    23    13    14 1   
    24    13    45 1   
    25    14    15 1   
    26    14    22 1   
    27    15    16 1   
    28    15    46 1   
    29    16    17 1   
    30    16    18 1   
    31    17    47 1   
    32    18    19 1   
    33    18    20 1   
    34    18    21 1   
    35    22    23 1   
    36    22    24 1   
    37    24    25 1   
    38    24    32 1   
    39    25    26 1   
    40    25    48 1   
    41    25    49 1   
    42    26    27 1   
    43    26    31 1   
    44    27    28 1   
    45    27    50 1   
    46    28    29 1   
    47    28    51 1   
    48    29    30 1   
    49    29    52 1   
    50    30    31 1   
    51    30    53 1   
    52    31    54 1   
    53    32    33 1   
    54    32    55 1   
    55    32    56 1   
    56    33    34 1   
    57    33    57 1   
    58    33    58 1   
    59    34    35 1   
    60    34    36 1   
    61    34    58 1   
    62    35    59 1   
    63    35    60 1   
    64    35    61 1   
    65    36    62 1   
    66    36    63 1   
    67    36    64 1   
@<TRIPOS>SUBSTRUCTURE
     1 O75         1 TEMP              0 ****  ****    0 ROOT
