@<TRIPOS>MOLECULE
molecule
   41    42     1     0     0
SMALL
bcc


@<TRIPOS>ATOM
      1 O3P          0.0000     0.0000     0.0000 o          1 O7E      -0.906167
      2 P            1.4800     0.0000     0.0000 p5         1 O7E       1.174900
      3 O1P          2.0180     0.0000     1.5180 o          1 O7E      -0.906167
      4 O2P          2.0160    -1.3130    -0.7600 o          1 O7E      -0.906167
      5 O5'          2.0160     1.3150    -0.7580 os         1 O7E      -0.565200
      6 C5'          1.6260     1.6590    -2.0900 c3         1 O7E       0.227400
      7 C4'          2.3150     2.9620    -2.5020 c3         1 O7E       0.124100
      8 O4'          3.7330     2.7470    -2.6750 os         1 O7E      -0.345600
      9 C3'          1.8130     3.4190    -3.8900 c3         1 O7E       0.093100
     10 O3'          0.8030     4.4200    -3.7510 oh         1 O7E      -0.585800
     11 C2'          3.0710     4.0080    -4.5690 c3         1 O7E       0.076100
     12 O2'          2.8750     5.3910    -4.8700 oh         1 O7E      -0.584800
     13 C1'          4.1830     3.8360    -3.5110 c3         1 O7E       0.296500
     14 N1           5.4520     3.4920    -4.1570 n          1 O7E      -0.343000
     15 C2           5.5580     2.3320    -4.8270 c          1 O7E       0.805500
     16 O2           4.5960     1.5910    -4.8820 o          1 O7E      -0.589500
     17 N3           6.6990     1.9700    -5.4370 ns         1 O7E      -0.562500
     18 C4           7.7840     2.7710    -5.3920 c          1 O7E       0.711700
     19 O4           8.8180     2.4470    -5.9440 o          1 O7E      -0.645500
     20 C5           7.6920     4.0450    -4.6660 cc         1 O7E      -0.312200
     21 C6           6.5140     4.3670    -4.0720 cd         1 O7E       0.090400
     22 C7           6.3750     5.6410    -3.3280 c          1 O7E       0.644300
     23 O71          5.9250     6.6220    -3.8830 o          1 O7E      -0.523000
     24 O72          6.7480     5.7110    -2.0360 os         1 O7E      -0.402900
     25 C8           6.5840     6.9910    -1.3700 c3         1 O7E       0.148400
     26 C9           7.0580     6.8760     0.0800 c3         1 O7E      -0.097100
     27 H3           0.5510     1.7910    -2.1290 h1         1 O7E       0.029200
     28 H4           1.9170     0.8660    -2.7680 h1         1 O7E       0.029200
     29 H5           2.1400     3.7370    -1.7660 h1         1 O7E       0.071700
     30 H6           1.4420     2.5730    -4.4550 h1         1 O7E       0.061700
     31 H7           0.0470     4.1760    -4.2580 ho         1 O7E       0.390000
     32 H8           3.3130     3.4490    -5.4640 h1         1 O7E       0.051700
     33 H9           2.7300     5.4940    -5.7950 ho         1 O7E       0.389000
     34 H10          4.2850     4.7410    -2.9240 h2         1 O7E       0.081700
     35 H11          6.7450     1.0990    -5.9280 hn         1 O7E       0.361500
     36 H12          8.5420     4.7140    -4.6120 ha         1 O7E       0.169000
     37 H13          7.1720     7.7430    -1.8830 h1         1 O7E       0.047200
     38 H14          5.5390     7.2760    -1.3880 h1         1 O7E       0.047200
     39 H15          8.0920     6.5560     0.0980 hc         1 O7E       0.050700
     40 H16          6.4460     6.1500     0.6030 hc         1 O7E       0.050700
     41 H17          6.9690     7.8400     0.5670 hc         1 O7E       0.050700
@<TRIPOS>BOND
     1    23    22 2
     2    22    24 1
     3    22    21 1
     4    24    25 1
     5    20    21 2
     6    20    18 1
     7    21    14 1
     8    26    25 1
     9     8    13 1
    10     8     7 1
    11    19    18 2
    12    18    17 1
    13    14    13 1
    14    14    15 1
    15    13    11 1
    16     7     6 1
    17     7     9 1
    18    17    15 1
    19    15    16 2
    20    10     9 1
    21     6     5 1
    22     9    11 1
    23    11    12 1
    24     1     2 1
    25     5     2 1
    26     2     3 1
    27     2     4 1
    28     6    27 1
    29     6    28 1
    30     7    29 1
    31     9    30 1
    32    10    31 1
    33    11    32 1
    34    12    33 1
    35    13    34 1
    36    17    35 1
    37    20    36 1
    38    25    37 1
    39    25    38 1
    40    26    39 1
    41    26    40 1
    42    26    41 1
@<TRIPOS>SUBSTRUCTURE
     1 O7E         1 TEMP              0 ****  ****    0 ROOT
