@<TRIPOS>MOLECULE
O7M
   38    39     1     0     0
SMALL
bcc


@<TRIPOS>ATOM
      1 O3P          0.0000     0.0000     0.0000 o          1 O7M      -0.730833
      2 P            1.4800     0.0000     0.0000 p5         1 O7M       0.686900
      3 O1P          2.0160     0.0000     1.5190 o          1 O7M      -0.730833
      4 O2P          2.0160    -1.3140    -0.7590 o          1 O7M      -0.730833
      5 O5'          2.0170     1.3150    -0.7580 os         1 O7M      -0.469200
      6 C5'          1.6280     2.6390    -0.3900 c3         1 O7M       0.285400
      7 C4'          2.3180     3.6480    -1.3100 c3         1 O7M       0.146100
      8 O4'          1.7750     3.5620    -2.6460 os         1 O7M      -0.335600
      9 C3'          2.0120     5.0920    -0.8520 c3         1 O7M       0.132100
     10 O3'          3.0920     5.6100    -0.0740 oh         1 O7M      -0.565800
     11 C2'          1.8670     5.8820    -2.1710 c3         1 O7M       0.109100
     12 O2'          2.8530     6.9120    -2.2480 oh         1 O7M      -0.561800
     13 C1'          2.1030     4.8230    -3.2710 c3         1 O7M       0.188500
     14 N1           1.2210     5.0690    -4.4140 n          1 O7M       0.085000
     15 C2          -0.1090     4.9750    -4.2530 c          1 O7M       0.579500
     16 O2          -0.5540     4.6860    -3.1580 o          1 O7M      -0.647500
     17 N3          -0.9630     5.1920    -5.2690 ns         1 O7M      -0.137500
     18 C4          -0.4990     5.5140    -6.4940 c          1 O7M       0.624700
     19 O4          -1.2670     5.7100    -7.4160 o          1 O7M      -0.704500
     20 C5           0.9520     5.6220    -6.6960 cc         1 O7M      -0.310200
     21 C6           1.7700     5.4000    -5.6340 cd         1 O7M      -0.108600
     22 C7           3.2410     5.4980    -5.7900 c          1 O7M       0.725300
     23 O71          3.8110     6.5370    -5.5250 o          1 O7M      -0.573000
     24 O72          3.9450     4.4360    -6.2260 os         1 O7M      -0.392900
     25 C8           5.3820     4.6040    -6.3530 c3         1 O7M       0.270700
     26 H3           1.9200     2.8290     0.6360 h1         1 O7M      -0.016300
     27 H4           0.5540     2.7400    -0.4840 h1         1 O7M      -0.016300
     28 H5           3.3880     3.4800    -1.3280 h1         1 O7M       0.032700
     29 H6           1.0850     5.1210    -0.2910 h1         1 O7M       0.025700
     30 H7           2.7590     5.9520     0.7390 ho         1 O7M       0.373000
     31 H8           0.8700     6.2960    -2.2540 h1         1 O7M       0.020700
     32 H9           2.4480     7.7480    -2.0850 ho         1 O7M       0.372000
     33 H10          3.1410     4.8300    -3.5800 h2         1 O7M       0.043700
     34 H11         -1.9490     5.1140    -5.1160 hn         1 O7M       0.199500
     35 H12          1.3590     5.8810    -7.6660 ha         1 O7M       0.138000
     36 H15          5.5910     5.4130    -7.0440 h1         1 O7M      -0.000967
     37 H16          5.8050     4.8390    -5.3840 h1         1 O7M      -0.000967
     38 H17          5.8210     3.6880    -6.7270 h1         1 O7M      -0.000967
@<TRIPOS>BOND
     1     1     2 1   
     2     2     3 1   
     3     2     4 1   
     4     2     5 1   
     5     5     6 1   
     6     6     7 1   
     7     6    26 1   
     8     6    27 1   
     9     7     8 1   
    10     7     9 1   
    11     7    28 1   
    12     8    13 1   
    13     9    10 1   
    14     9    11 1   
    15     9    29 1   
    16    10    30 1   
    17    11    12 1   
    18    11    13 1   
    19    11    31 1   
    20    12    32 1   
    21    13    14 1   
    22    13    33 1   
    23    14    15 1   
    24    14    21 1   
    25    15    16 2   
    26    15    17 1   
    27    17    18 1   
    28    17    34 1   
    29    18    19 2   
    30    18    20 1   
    31    20    21 2   
    32    20    35 1   
    33    21    22 1   
    34    22    23 2   
    35    22    24 1   
    36    24    25 1   
    37    25    36 1   
    38    25    37 1   
    39    25    38 1   
@<TRIPOS>SUBSTRUCTURE
     1 O7M         1 TEMP              0 ****  ****    0 ROOT
