@<TRIPOS>MOLECULE
molecule
   16    16     1     0     0
SMALL
bcc


@<TRIPOS>ATOM
      1 N1           0.0000     0.0000     0.0000 ns         1 O7U      -0.486100
      2 C2           1.3220     0.0000     0.0000 c          1 O7U       0.788500
      3 O2           1.8790    -0.0000    -1.0820 o          1 O7U      -0.562500
      4 N3           2.1080     0.0000     1.1040 ns         1 O7U      -0.671900
      5 N4           1.7010    -1.3680     3.4200 nz         1 O7U      -0.813700
      6 O4           1.6470     1.2030     3.3130 o          1 O7U      -0.656300
      7 P4           1.2690    -0.0010     2.5400 py         1 O7U       1.086600
      8 C5          -0.5510    -0.0000     2.3030 ce         1 O7U      -0.456600
      9 C6          -0.9200     0.0000     1.0210 c2         1 O7U       0.127600
     10 HN1         -0.4070     0.0000    -0.9140 hn         1 O7U       0.384500
     11 HN3          3.1080     0.0020     1.0590 hn         1 O7U       0.394500
     12 HN4          1.0930    -1.4620     4.2100 hn         1 O7U       0.479467
     13 HN4A         1.6200    -2.1790     2.8390 hn         1 O7U       0.479467
     14 H5          -1.1940     0.4450     3.0530 ha         1 O7U       0.227000
     15 H6          -1.9760     0.0000     0.7780 h4         1 O7U       0.201000
     16 H43          2.6500    -1.2820     3.7270 hn         1 O7U       0.479467
@<TRIPOS>BOND
     1     1     2 1
     2     1     9 1
     3     2     3 2
     4     2     4 1
     5     4     7 1
     6     5     7 1
     7     6     7 2
     8     7     8 1
     9     8     9 2
    10     1    10 1
    11     4    11 1
    12     5    12 1
    13     5    13 1
    14     8    14 1
    15     9    15 1
    16    16     5 1
@<TRIPOS>SUBSTRUCTURE
     1 O7U         1 TEMP              0 ****  ****    0 ROOT
