@<TRIPOS>MOLECULE
molecule
   39    41     1     0     0
SMALL
bcc


@<TRIPOS>ATOM
      1 C1           0.0000     0.0000     0.0000 ca         1 O80       0.006800
      2 F1           3.1830     2.1020    -0.5850 f          1 O80      -0.220633
      3 N1           1.3840     0.0000     0.0000 na         1 O80      -0.088300
      4 C2          -0.4430    -0.0010     1.3320 cp         1 O80      -0.079000
      5 F2           1.3080     2.1030    -1.8900 f          1 O80      -0.220633
      6 N2           2.5650     1.3830     6.0230 n3         1 O80      -0.727600
      7 C3           0.7680    -0.0000     2.1740 cp         1 O80      -0.083000
      8 F3           3.3110     1.4430    -2.7680 f          1 O80      -0.220633
      9 C4           1.8630     0.0000     1.2970 ca         1 O80       0.008800
     10 C5          -0.9370     0.0050    -1.0290 ca         1 O80      -0.151000
     11 C6          -2.2840     0.0050    -0.7370 ca         1 O80      -0.095000
     12 C7          -2.7190    -0.0010     0.5790 ca         1 O80      -0.158000
     13 C8          -1.8070    -0.0010     1.6130 ca         1 O80      -0.072000
     14 C9           3.1530     0.0000     1.8180 ca         1 O80      -0.153000
     15 C10          3.3460     0.0010     3.1840 ca         1 O80      -0.091000
     16 C11          2.2620    -0.0010     4.0480 ca         1 O80      -0.110300
     17 C12          0.9770    -0.0010     3.5510 ca         1 O80      -0.050000
     18 C13          2.2200    -0.0000    -1.2020 c3         1 O80       0.012300
     19 C14          2.5110     1.4430    -1.6200 c3         1 O80       0.590900
     20 C15          2.4910    -0.0010     5.5380 c3         1 O80       0.213100
     21 C16          2.5490     1.4300     7.4900 c3         1 O80       0.151100
     22 C17          3.7510     2.0660     5.4870 c3         1 O80       0.151100
     23 H5          -0.6080     0.0090    -2.0610 ha         1 O80       0.129000
     24 H6          -3.0090     0.0050    -1.5420 ha         1 O80       0.134000
     25 H7          -3.7800    -0.0010     0.7970 ha         1 O80       0.133000
     26 H8          -2.1500    -0.0050     2.6400 ha         1 O80       0.135000
     27 H9           4.0070     0.0010     1.1510 ha         1 O80       0.129000
     28 H10          4.3530     0.0010     3.5840 ha         1 O80       0.133000
     29 H12          0.1320    -0.0020     4.2290 ha         1 O80       0.139000
     30 H13          1.7000    -0.5100    -2.0040 h1         1 O80       0.091700
     31 H13A         3.1520    -0.5110    -0.9940 h1         1 O80       0.091700
     32 H15          3.4200    -0.5120     5.7600 h1         1 O80       0.038200
     33 H15A         1.6720    -0.5130     6.0290 h1         1 O80       0.038200
     34 H16          3.4340     0.9380     7.8770 h1         1 O80       0.032367
     35 H16A         2.5370     2.4620     7.8190 h1         1 O80       0.032367
     36 H16B         1.6650     0.9230     7.8580 h1         1 O80       0.032367
     37 H17          4.5860     1.3760     5.4660 h1         1 O80       0.032367
     38 H17A         3.9970     2.9110     6.1190 h1         1 O80       0.032367
     39 H17B         3.5440     2.4150     4.4830 h1         1 O80       0.032367
@<TRIPOS>BOND
     1     1     3 1
     2     1     4 ar
     3     1    10 ar
     4     2    19 1
     5     3     9 1
     6     3    18 1
     7     4     7 1
     8     4    13 ar
     9     5    19 1
    10     6    20 1
    11     6    21 1
    12     6    22 1
    13     7     9 ar
    14     7    17 ar
    15     8    19 1
    16     9    14 ar
    17    10    11 ar
    18    11    12 ar
    19    12    13 ar
    20    14    15 ar
    21    15    16 ar
    22    16    17 ar
    23    16    20 1
    24    18    19 1
    25    10    23 1
    26    11    24 1
    27    12    25 1
    28    13    26 1
    29    14    27 1
    30    15    28 1
    31    17    29 1
    32    18    30 1
    33    18    31 1
    34    20    32 1
    35    20    33 1
    36    21    34 1
    37    21    35 1
    38    21    36 1
    39    22    37 1
    40    22    38 1
    41    22    39 1
@<TRIPOS>SUBSTRUCTURE
     1 O80         1 TEMP              0 ****  ****    0 ROOT
