@<TRIPOS>MOLECULE
molecule
   36    38     1     0     0
SMALL
bcc


@<TRIPOS>ATOM
      1 C1           0.0000     0.0000     0.0000 ca         1 O82       0.006800
      2 F1           3.3130     1.4410    -2.7680 f          1 O82      -0.246300
      3 N1           1.3830     0.0000     0.0000 na         1 O82      -0.085300
      4 C2          -0.4420    -0.0000     1.3320 cp         1 O82      -0.087000
      5 N2           2.5630     1.3850     6.0230 n7         1 O82      -0.816200
      6 C3           0.7670     0.0000     2.1740 cp         1 O82      -0.088000
      7 C4           1.8620     0.0000     1.2980 ca         1 O82       0.008800
      8 C5          -0.9360     0.0050    -1.0290 ca         1 O82      -0.159000
      9 C6          -2.2830     0.0050    -0.7370 ca         1 O82      -0.095000
     10 C7          -2.7190    -0.0010     0.5790 ca         1 O82      -0.162000
     11 C8          -1.8080     0.0000     1.6120 ca         1 O82      -0.072000
     12 C9           3.1520    -0.0000     1.8200 ca         1 O82      -0.161000
     13 C10          3.3450     0.0000     3.1840 ca         1 O82      -0.072000
     14 C11          2.2620     0.0010     4.0490 ca         1 O82      -0.118300
     15 C12          0.9760     0.0000     3.5510 ca         1 O82      -0.069000
     16 C13          2.2210    -0.0000    -1.2020 c3         1 O82       0.023300
     17 C14          2.5120     1.4420    -1.6200 c3         1 O82       0.136900
     18 C15          2.4900    -0.0000     5.5390 c3         1 O82       0.208100
     19 C16          2.7860     1.4240     7.4750 c3         1 O82       0.146100
     20 HN2          1.7110     1.8610     5.8030 hn         1 O82       0.355800
     21 H5          -0.6060     0.0100    -2.0610 ha         1 O82       0.129000
     22 H6          -3.0080     0.0050    -1.5430 ha         1 O82       0.133000
     23 H7          -3.7800     0.0000     0.7960 ha         1 O82       0.132000
     24 H8          -2.1510    -0.0040     2.6400 ha         1 O82       0.132000
     25 H9           4.0060    -0.0000     1.1520 ha         1 O82       0.130000
     26 H10          4.3520     0.0010     3.5840 ha         1 O82       0.139000
     27 H12          0.1310     0.0000     4.2290 ha         1 O82       0.130000
     28 H13          1.7020    -0.5110    -2.0040 h1         1 O82       0.070700
     29 H13A         3.1530    -0.5110    -0.9930 h1         1 O82       0.070700
     30 H14          3.0190     1.9780    -0.8270 h1         1 O82       0.056700
     31 H14A         1.5690     1.9270    -1.8380 h1         1 O82       0.056700
     32 H15          1.6700    -0.5110     6.0300 h1         1 O82       0.036700
     33 H15A         3.4190    -0.5110     5.7620 h1         1 O82       0.036700
     34 H16          2.8380     2.4550     7.8040 h1         1 O82       0.030700
     35 H16A         3.7160     0.9210     7.7110 h1         1 O82       0.030700
     36 H16B         1.9670     0.9250     7.9790 h1         1 O82       0.030700
@<TRIPOS>BOND
     1     1     3 1
     2     1     4 ar
     3     1     8 ar
     4     2    17 1
     5     3     7 1
     6     3    16 1
     7     4     6 1
     8     4    11 ar
     9     5    18 1
    10     5    19 1
    11     6     7 ar
    12     6    15 ar
    13     7    12 ar
    14     8     9 ar
    15     9    10 ar
    16    10    11 ar
    17    12    13 ar
    18    13    14 ar
    19    14    15 ar
    20    14    18 1
    21    16    17 1
    22     5    20 1
    23     8    21 1
    24     9    22 1
    25    10    23 1
    26    11    24 1
    27    12    25 1
    28    13    26 1
    29    15    27 1
    30    16    28 1
    31    16    29 1
    32    17    30 1
    33    17    31 1
    34    18    32 1
    35    18    33 1
    36    19    34 1
    37    19    35 1
    38    19    36 1
@<TRIPOS>SUBSTRUCTURE
     1 O82         1 TEMP              0 ****  ****    0 ROOT
