@<TRIPOS>MOLECULE
O83
   36    38     1     0     0
SMALL
bcc


@<TRIPOS>ATOM
      1 C1           0.0000     0.0000     0.0000 ca         1 O83      -0.163200
      2 F1           3.2830     2.0660    -0.6340 f          1 O83      -0.217300
      3 N1           1.3830     0.0000     0.0000 na         1 O83       0.364700
      4 C2          -0.4430     0.0010     1.3310 cp         1 O83      -0.077000
      5 F2           3.2160     1.4410    -2.8300 f          1 O83      -0.217300
      6 N2           2.5640     1.3860     6.0220 n7         1 O83      -0.582200
      7 C3           0.7670     0.0010     2.1750 cp         1 O83      -0.081000
      8 C4           1.8620     0.0000     1.2980 ca         1 O83      -0.155200
      9 C5          -0.9360     0.0060    -1.0300 ca         1 O83      -0.128000
     10 C6          -2.2830     0.0060    -0.7370 ca         1 O83      -0.068000
     11 C7          -2.7200     0.0020     0.5790 ca         1 O83      -0.135000
     12 C8          -1.8070     0.0020     1.6130 ca         1 O83      -0.037000
     13 C9           3.1530    -0.0010     1.8200 ca         1 O83      -0.116000
     14 C10          3.3450    -0.0000     3.1840 ca         1 O83      -0.045000
     15 C11          2.2610     0.0000     4.0490 ca         1 O83      -0.125300
     16 C12          0.9760     0.0000     3.5520 ca         1 O83      -0.036000
     17 C13          2.2210    -0.0020    -1.2020 c3         1 O83      -0.088700
     18 C14          2.5130     1.4400    -1.6210 c3         1 O83       0.375900
     19 C15          2.4890     0.0010     5.5390 c3         1 O83       0.207100
     20 C16          2.7870     1.4250     7.4740 c3         1 O83       0.178100
     21 HN2          1.7120     1.8630     5.8030 hn         1 O83       0.253800
     22 H5          -0.6060     0.0100    -2.0620 ha         1 O83       0.102000
     23 H6          -3.0070     0.0060    -1.5430 ha         1 O83       0.102000
     24 H7          -3.7810     0.0020     0.7960 ha         1 O83       0.106000
     25 H8          -2.1500    -0.0010     2.6400 ha         1 O83       0.103000
     26 H9           4.0070    -0.0020     1.1530 ha         1 O83       0.109000
     27 H10          4.3520    -0.0010     3.5840 ha         1 O83       0.110000
     28 H12          0.1310     0.0010     4.2290 ha         1 O83       0.103000
     29 H13          1.7010    -0.5120    -2.0040 h1         1 O83       0.055200
     30 H13A         3.1530    -0.5130    -0.9930 h1         1 O83       0.055200
     31 H14          1.5690     1.9610    -1.7260 h2         1 O83       0.040700
     32 H15          3.4180    -0.5100     5.7620 h1         1 O83       0.008200
     33 H15A         1.6700    -0.5090     6.0300 h1         1 O83       0.008200
     34 H16          1.9680     0.9270     7.9790 h1         1 O83      -0.002633
     35 H16A         3.7170     0.9220     7.7110 h1         1 O83      -0.002633
     36 H16B         2.8400     2.4560     7.8030 h1         1 O83      -0.002633
@<TRIPOS>BOND
     1     1     3 1   
     2     1     4 ar  
     3     1     9 ar  
     4     2    18 1   
     5     3     8 1   
     6     3    17 1   
     7     4     7 1   
     8     4    12 ar  
     9     5    18 1   
    10     6    19 1   
    11     6    20 1   
    12     6    21 1   
    13     7     8 ar  
    14     7    16 ar  
    15     8    13 ar  
    16     9    10 ar  
    17     9    22 1   
    18    10    11 ar  
    19    10    23 1   
    20    11    12 ar  
    21    11    24 1   
    22    12    25 1   
    23    13    14 ar  
    24    13    26 1   
    25    14    15 ar  
    26    14    27 1   
    27    15    16 ar  
    28    15    19 1   
    29    16    28 1   
    30    17    18 1   
    31    17    29 1   
    32    17    30 1   
    33    18    31 1   
    34    19    32 1   
    35    19    33 1   
    36    20    34 1   
    37    20    35 1   
    38    20    36 1   
@<TRIPOS>SUBSTRUCTURE
     1 O83         1 TEMP              0 ****  ****    0 ROOT
