@<TRIPOS>MOLECULE
O84
   52    57     1     0     0
SMALL
bcc


@<TRIPOS>ATOM
      1 OP2          0.0000     0.0000     0.0000 o          1 O84      -0.720500
      2 P            1.6090     0.0000     0.0000 p5         1 O84       0.844500
      3 OP1          2.1030    -1.2080    -0.6980 o          1 O84      -0.720500
      4 OP3          2.1460     1.3150    -0.7590 o          1 O84      -0.720500
      5 CAB          2.2180     0.0000     1.7190 c3         1 O84      -0.097000
      6 C2           3.7180     0.1400     1.7270 ca         1 O84      -0.055000
      7 CAA          4.5100    -0.9340     2.0890 ca         1 O84      -0.094500
      8 C9           5.8860    -0.8060     2.0970 ca         1 O84      -0.134000
      9 C10          6.4710     0.3950     1.7440 ca         1 O84      -0.162000
     10 C11          5.6790     1.4690     1.3820 ca         1 O84      -0.134000
     11 C12          4.3030     1.3390     1.3670 ca         1 O84      -0.094500
     12 O3'          1.6280     1.0830     2.4380 os         1 O84      -0.205000
     13 O7           1.8410    -1.2220     2.3640 os         1 O84      -0.203000
     14 C5'          2.3360    -1.3140     3.7000 c3         1 O84      -0.069000
     15 C4'          1.7880    -0.1630     4.5500 c3         1 O84       0.000000
     16 O4'          2.6460    -0.0440     5.7060 os         1 O84      -0.287000
     17 C3'          1.9680     1.1760     3.8050 c3         1 O84       0.040000
     18 C2'          3.4790     1.4360     4.0030 c3         1 O84      -0.287000
     19 C1'          3.7160     0.8680     5.4210 c3         1 O84       0.090000
     20 N9           4.9970     0.1610     5.4670 n          1 O84       0.214000
     21 C4           5.0070    -1.2040     5.4690 c2         1 O84      -0.386000
     22 C8           6.1380     0.8680     5.4980 c2         1 O84       0.158000
     23 O2           6.0800     2.0830     5.4890 o          1 O84      -0.535000
     24 N1           7.3430     0.2730     5.5400 ns         1 O84       0.083000
     25 C6           7.4370    -1.0730     5.5510 c2         1 O84       0.229000
     26 O6           8.5250    -1.6190     5.5890 o          1 O84      -0.358000
     27 C5           6.2010    -1.8670     5.5110 c3         1 O84      -0.079000
     28 C17          6.2470    -3.3430     5.5200 c2         1 O84      -0.079000
     29 C18          7.4080    -3.9690     5.6690 c2         1 O84      -0.170000
     30 C19          7.4420    -5.4710     5.7960 DU         1 O84      -0.456000
     31 P2           8.5550    -6.1620     4.5280 p5         1 O84       0.836500
     32 O11          9.8870    -5.5290     4.6420 o          1 O84      -0.727167
     33 O9           8.6960    -7.7510     4.7460 o          1 O84      -0.727167
     34 O10          7.9470    -5.8730     3.0650 o          1 O84      -0.727167
     35 H3           4.0520    -1.8760     2.3660 ha         1 O84       0.142500
     36 H4           6.5070    -1.6480     2.3810 ha         1 O84       0.090500
     37 H5           7.5500     0.4950     1.7530 ha         1 O84       0.074000
     38 H6           6.1380     2.4100     1.1020 ha         1 O84       0.090500
     39 H7           3.6820     2.1800     1.0840 ha         1 O84       0.142500
     40 H8           3.4180    -1.2620     3.6840 h1         1 O84       0.071000
     41 H9           2.0240    -2.2570     4.1330 h1         1 O84       0.071000
     42 H10          0.7560    -0.3290     4.8340 h1         1 O84       0.066000
     43 H11          1.3880     1.9540     4.2870 h1         1 O84       0.040000
     44 H12          3.6940     2.4970     3.9720 hc         1 O84       0.125000
     45 H13          4.0630     0.8930     3.2690 hc         1 O84       0.125000
     46 H14          3.7100     1.6760     6.1430 h2         1 O84       0.057000
     47 H15          4.0760    -1.7570     5.4390 h4         1 O84       0.179000
     48 H16          8.1730     0.8310     5.5620 hn         1 O84       0.087000
     49 H17          6.4640    -2.7670     4.6290 DU         1 O84       0.038000
     50 H18          7.3760    -4.6210     4.8040 DU         1 O84       0.226000
     51 H19          6.4440    -5.8680     5.6570 ha         1 O84       0.055000
     52 H20          7.8040    -5.7410     6.7810 ha         1 O84       0.055000
@<TRIPOS>BOND
     1     1     2 1   
     2     2     3 1   
     3     2     4 1   
     4     2     5 1   
     5     5     6 1   
     6     5    12 1   
     7     5    13 1   
     8     6     7 1   
     9     6    11 1   
    10     7     8 1   
    11     7    35 1   
    12     8     9 1   
    13     8    36 1   
    14     9    10 1   
    15     9    37 1   
    16    10    11 1   
    17    10    38 1   
    18    11    39 1   
    19    12    17 1   
    20    13    14 1   
    21    14    15 1   
    22    14    40 1   
    23    14    41 1   
    24    15    16 1   
    25    15    17 1   
    26    15    42 1   
    27    16    19 1   
    28    17    18 1   
    29    17    43 1   
    30    18    19 1   
    31    18    44 1   
    32    18    45 1   
    33    19    20 1   
    34    19    46 1   
    35    20    21 1   
    36    20    22 1   
    37    21    27 1   
    38    21    47 1   
    39    22    23 1   
    40    22    24 1   
    41    24    25 1   
    42    24    48 1   
    43    25    26 1   
    44    25    27 1   
    45    27    28 1   
    46    27    49 1   
    47    28    29 1   
    48    28    49 1   
    49    29    30 1   
    50    29    50 1   
    51    30    31 1   
    52    30    50 1   
    53    30    51 1   
    54    30    52 1   
    55    31    32 1   
    56    31    33 1   
    57    31    34 1   
@<TRIPOS>SUBSTRUCTURE
     1 O84         1 TEMP              0 ****  ****    0 ROOT
