@<TRIPOS>MOLECULE
molecule
   52    55     1     0     0
SMALL
bcc


@<TRIPOS>ATOM
      1 OP2          0.0000     0.0000     0.0000 o          1 O84      -0.884500
      2 P            1.6090     0.0000     0.0000 p5         1 O84       1.019700
      3 OP1          2.1030    -1.2080    -0.6980 o          1 O84      -0.884500
      4 OP3          2.1460     1.3150    -0.7590 o          1 O84      -0.884500
      5 CAB          2.2180     0.0000     1.7190 c3         1 O84       0.316700
      6 C2           3.7180     0.1400     1.7270 ca         1 O84      -0.103300
      7 CAA          4.5100    -0.9340     2.0890 ca         1 O84      -0.099000
      8 C9           5.8860    -0.8060     2.0970 ca         1 O84      -0.154000
      9 C10          6.4710     0.3950     1.7440 ca         1 O84      -0.160000
     10 C11          5.6790     1.4690     1.3820 ca         1 O84      -0.154000
     11 C12          4.3030     1.3390     1.3670 ca         1 O84      -0.099000
     12 O3'          1.6280     1.0830     2.4380 os         1 O84      -0.365600
     13 O7           1.8410    -1.2220     2.3640 os         1 O84      -0.362600
     14 C5'          2.3360    -1.3140     3.7000 c3         1 O84       0.074400
     15 C4'          1.7880    -0.1630     4.5500 c3         1 O84       0.062100
     16 O4'          2.6460    -0.0440     5.7060 os         1 O84      -0.446600
     17 C3'          1.9680     1.1760     3.8050 c3         1 O84       0.125100
     18 C2'          3.4790     1.4360     4.0030 c3         1 O84      -0.193400
     19 C1'          3.7160     0.8680     5.4210 c3         1 O84       0.315500
     20 N9           4.9970     0.1610     5.4670 n          1 O84      -0.355000
     21 C4           5.0070    -1.2040     5.4690 cc         1 O84      -0.059400
     22 C8           6.1380     0.8680     5.4980 c          1 O84       0.813500
     23 O2           6.0800     2.0830     5.4890 o          1 O84      -0.733500
     24 N1           7.3430     0.2730     5.5400 ns         1 O84      -0.566500
     25 C6           7.4370    -1.0730     5.5510 c          1 O84       0.689700
     26 O6           8.5250    -1.6190     5.5890 o          1 O84      -0.603500
     27 C5           6.2010    -1.8670     5.5110 cc         1 O84      -0.144200
     28 C17          6.2470    -3.3430     5.5200 ce         1 O84      -0.259000
     29 C18          7.4080    -3.9690     5.6690 c2         1 O84       0.001800
     30 C19          7.4420    -5.4710     5.7960 c3         1 O84      -0.219400
     31 P2           8.5550    -6.1620     4.5280 p5         1 O84       1.037700
     32 O11          9.8870    -5.5290     4.6420 o          1 O84      -0.909833
     33 O9           8.6960    -7.7510     4.7460 o          1 O84      -0.909833
     34 O10          7.9470    -5.8730     3.0650 o          1 O84      -0.909833
     35 H3           4.0520    -1.8760     2.3660 ha         1 O84       0.162000
     36 H4           6.5070    -1.6480     2.3810 ha         1 O84       0.121000
     37 H5           7.5500     0.4950     1.7530 ha         1 O84       0.097000
     38 H6           6.1380     2.4100     1.1020 ha         1 O84       0.121000
     39 H7           3.6820     2.1800     1.0840 ha         1 O84       0.162000
     40 H8           3.4180    -1.2620     3.6840 h1         1 O84       0.054700
     41 H9           2.0240    -2.2570     4.1330 h1         1 O84       0.054700
     42 H10          0.7560    -0.3290     4.8340 h1         1 O84       0.071700
     43 H11          1.3880     1.9540     4.2870 h1         1 O84       0.042700
     44 H12          4.0630     0.8930     3.2690 hc         1 O84       0.100700
     45 H13          3.6940     2.4970     3.9720 hc         1 O84       0.100700
     46 H14          3.7100     1.6760     6.1430 h2         1 O84       0.057700
     47 H15          4.0760    -1.7570     5.4390 h4         1 O84       0.185000
     48 H16          8.1730     0.8310     5.5620 hn         1 O84       0.331500
     49 H17          5.3260    -3.9120     5.4910 ha         1 O84       0.121000
     50 H18          8.3210    -3.3970     5.7820 ha         1 O84       0.164000
     51 H19          7.8040    -5.7410     6.7810 hc         1 O84       0.029200
     52 H20          6.4440    -5.8680     5.6570 hc         1 O84       0.029200
@<TRIPOS>BOND
     1    32    31 1
     2    26    25 2
     3    33    31 1
     4    31    34 1
     5    31    30 1
     6    29    30 1
     7    29    28 2
     8    25    24 1
     9    25    27 1
    10    24    22 1
    11    28    27 1
    12    27    21 2
    13    22    23 2
    14    22    20 1
    15    21    20 1
    16    20    19 1
    17    19    18 1
    18    19    16 1
    19    18    17 1
    20    10    11 ar
    21    10     9 ar
    22    16    15 1
    23    11     6 ar
    24    12    17 1
    25    12     5 1
    26    17    15 1
    27     9     8 ar
    28    15    14 1
    29     6     5 1
    30     6     7 ar
    31     8     7 ar
    32     5    13 1
    33     5     2 1
    34    13    14 1
    35     3     2 1
    36     2     1 1
    37     2     4 1
    38     7    35 1
    39     8    36 1
    40     9    37 1
    41    10    38 1
    42    11    39 1
    43    14    40 1
    44    14    41 1
    45    15    42 1
    46    17    43 1
    47    18    44 1
    48    18    45 1
    49    19    46 1
    50    21    47 1
    51    24    48 1
    52    28    49 1
    53    29    50 1
    54    30    51 1
    55    30    52 1
@<TRIPOS>SUBSTRUCTURE
     1 O84         1 TEMP              0 ****  ****    0 ROOT
