@<TRIPOS>MOLECULE
molecule
   40    43     1     0     0
SMALL
bcc


@<TRIPOS>ATOM
      1 C1           0.0000     0.0000     0.0000 ca         1 O8A       0.129400
      2 F1          -4.8670     1.1440    -0.5010 f          1 O8A      -0.205300
      3 N1           1.3590     0.0000     0.0000 nc         1 O8A      -0.595100
      4 O1          -3.2380     0.0010    -1.6720 os         1 O8A      -0.337900
      5 S1           0.2990     1.2730     4.4890 ss         1 O8A      -0.067800
      6 C2          -0.4110     0.0010     1.3430 ca         1 O8A      -0.111200
      7 F2          -4.8680    -1.1410    -0.5000 f          1 O8A      -0.205300
      8 N2           0.7510    -0.0000     2.0980 na         1 O8A      -0.058400
      9 O2           1.0200     0.2090     8.2410 o          1 O8A      -0.591100
     10 C3          -1.7630     0.0000     1.6560 ca         1 O8A      -0.081000
     11 F3          -5.4310     0.0010    -2.3970 f          1 O8A      -0.205300
     12 N3           0.0940     2.1030     7.5370 ns         1 O8A      -0.548900
     13 C4          -2.7010     0.0010     0.6480 ca         1 O8A      -0.185000
     14 C5          -2.3010     0.0010    -0.6860 ca         1 O8A       0.111100
     15 C6          -0.9610    -0.0050    -1.0140 ca         1 O8A      -0.087000
     16 C7           1.7980     0.0000     1.2250 cd         1 O8A       0.450800
     17 C8          -4.6080     0.0010    -1.2660 c3         1 O8A       0.795700
     18 C9           3.2520    -0.0000     1.6210 c3         1 O8A      -0.098400
     19 C10          0.8340     0.0000     3.4870 cc         1 O8A       0.029700
     20 C11          0.7890     0.4060     5.9370 cc         1 O8A      -0.112700
     21 C12          1.3300    -0.7980     5.5780 cd         1 O8A      -0.075000
     22 C13          1.3470    -1.0060     4.2220 cd         1 O8A      -0.166000
     23 C14          0.6440     0.8940     7.3080 c          1 O8A       0.708700
     24 C15         -0.0520     2.5920     8.9100 cx         1 O8A       0.057700
     25 C16         -0.1110     4.1070     9.1180 cx         1 O8A      -0.154900
     26 C17         -1.3760     3.2620     9.2840 cx         1 O8A      -0.154900
     27 H3          -2.0800     0.0000     2.6920 ha         1 O8A       0.140000
     28 HN3         -0.1990     2.6730     6.7690 hn         1 O8A       0.316500
     29 H4          -3.7560     0.0020     0.8940 ha         1 O8A       0.155000
     30 H6          -0.6560     0.0850    -2.0500 ha         1 O8A       0.163000
     31 H9           3.5300    -0.9860     1.9760 hc         1 O8A       0.064700
     32 H9A          3.4120     0.7260     2.4090 hc         1 O8A       0.064700
     33 H9B          3.8600     0.2580     0.7620 hc         1 O8A       0.064700
     34 H12          1.7090    -1.5180     6.2940 ha         1 O8A       0.180000
     35 H13          1.7420    -1.9100     3.7760 ha         1 O8A       0.166000
     36 H15          0.4220     2.0430     9.7140 h1         1 O8A       0.126700
     37 H16         -0.0650     4.7050     8.2160 hc         1 O8A       0.079200
     38 H16A         0.3320     4.4710    10.0370 hc         1 O8A       0.079200
     39 H17         -1.7050     3.1090    10.3050 hc         1 O8A       0.079200
     40 H17A        -2.1020     3.3430     8.4840 hc         1 O8A       0.079200
@<TRIPOS>BOND
     1     1     3 1
     2     1     6 ar
     3     1    15 ar
     4     2    17 1
     5     3    16 2
     6     4    14 1
     7     4    17 1
     8     5    19 1
     9     5    20 1
    10     6     8 1
    11     6    10 ar
    12     7    17 1
    13     8    16 1
    14     8    19 1
    15     9    23 2
    16    10    13 ar
    17    11    17 1
    18    12    23 1
    19    12    24 1
    20    13    14 ar
    21    14    15 ar
    22    16    18 1
    23    19    22 2
    24    20    21 2
    25    20    23 1
    26    21    22 1
    27    24    25 1
    28    24    26 1
    29    25    26 1
    30    10    27 1
    31    12    28 1
    32    13    29 1
    33    15    30 1
    34    18    31 1
    35    18    32 1
    36    18    33 1
    37    21    34 1
    38    22    35 1
    39    24    36 1
    40    25    37 1
    41    25    38 1
    42    26    39 1
    43    26    40 1
@<TRIPOS>SUBSTRUCTURE
     1 O8A         1 TEMP              0 ****  ****    0 ROOT
