@<TRIPOS>MOLECULE
O8B
   48    51     1     0     0
SMALL
bcc


@<TRIPOS>ATOM
      1 C11          0.0000     0.0000     0.0000 c3         1 O8B       0.071200
      2 C10          1.5070     0.0000     0.0000 ca         1 O8B      -0.116300
      3 C01          2.1990     0.0000     1.1960 ca         1 O8B      -0.064000
      4 C03          3.5810     0.0000     1.1960 ca         1 O8B      -0.139000
      5 C05          4.2750     0.0000     0.0000 ca         1 O8B      -0.064000
      6 C07          3.5880    -0.0000    -1.1980 ca         1 O8B      -0.212000
      7 C09          2.2000    -0.0050    -1.2010 ca         1 O8B       0.143100
      8 O15          1.5230    -0.0050    -2.3790 os         1 O8B      -0.263900
      9 C16          2.3030    -0.0010    -3.5760 c3         1 O8B       0.133400
     10 C19          1.3860    -0.0030    -4.7730 c          1 O8B       0.544100
     11 O22          0.1840    -0.0070    -4.6160 o          1 O8B      -0.598100
     12 N20          1.9030     0.0020    -6.0180 ns         1 O8B      -0.035100
     13 C23          1.0550    -0.0930    -7.1270 ca         1 O8B      -0.107400
     14 C24         -0.1680     0.5110    -7.0860 ca         1 O8B      -0.039000
     15 C28          1.4850    -0.8020    -8.2570 ca         1 O8B      -0.122000
     16 C26          0.7040    -0.9260    -9.3600 ca         1 O8B      -0.030000
     17 C30         -0.5710    -0.3310    -9.3790 ca         1 O8B      -0.117000
     18 N34         -1.5730    -0.2400   -10.2380 nc         1 O8B      -0.433400
     19 C31         -1.0220     0.4190    -8.1970 ca         1 O8B      -0.090000
     20 N32         -2.2320     0.8520    -8.5150 nc         1 O8B      -0.430400
     21 N33         -2.5200     0.4480    -9.7030 na         1 O8B       0.971000
     22 C35         -3.7300     0.7350   -10.3470 ca         1 O8B      -0.213200
     23 C36         -4.6960     1.4990    -9.7060 ca         1 O8B      -0.059000
     24 C38         -5.8880     1.7800   -10.3440 ca         1 O8B      -0.103000
     25 C40         -6.1210     1.3000   -11.6200 ca         1 O8B      -0.064300
     26 C45         -7.4230     1.6080   -12.3130 c3         1 O8B       0.059200
     27 C41         -5.1610     0.5390   -12.2610 ca         1 O8B      -0.103000
     28 C43         -3.9640     0.2600   -11.6310 ca         1 O8B      -0.059000
     29 H11         -0.3610    -0.8850    -0.5100 hc         1 O8B       0.011367
     30 H11A        -0.3610     0.0010     1.0210 hc         1 O8B       0.011367
     31 H11B        -0.3610     0.8840    -0.5110 hc         1 O8B       0.011367
     32 H01          1.6580    -0.0000     2.1340 ha         1 O8B       0.107000
     33 H03          4.1210     0.0000     2.1350 ha         1 O8B       0.104000
     34 H05          5.3590     0.0020     0.0030 ha         1 O8B       0.099000
     35 H07          4.1320    -0.0020    -2.1350 ha         1 O8B       0.112000
     36 H16          2.9240     0.8860    -3.5990 h1         1 O8B       0.014700
     37 H16A         2.9310    -0.8830    -3.6010 h1         1 O8B       0.014700
     38 HN20         2.8900     0.0950    -6.1490 hn         1 O8B       0.163500
     39 H24         -0.4180     1.1720    -6.2640 ha         1 O8B       0.146000
     40 H28          2.4660    -1.2620    -8.2500 ha         1 O8B       0.104000
     41 H26          1.0600    -1.4790   -10.2210 ha         1 O8B       0.111000
     42 H36         -4.5140     1.8760    -8.7070 ha         1 O8B       0.134000
     43 H38         -6.6420     2.3760    -9.8450 ha         1 O8B       0.114000
     44 H45         -8.2140     1.0060   -11.8820 hc         1 O8B       0.011700
     45 H45A        -7.6600     2.6580   -12.1860 hc         1 O8B       0.011700
     46 H45B        -7.3330     1.3830   -13.3690 hc         1 O8B       0.011700
     47 H41         -5.3460     0.1670   -13.2610 ha         1 O8B       0.114000
     48 H43         -3.2120    -0.3370   -12.1340 ha         1 O8B       0.134000
@<TRIPOS>BOND
     1     1     2 1   
     2     1    29 1   
     3     1    30 1   
     4     1    31 1   
     5     2     3 ar  
     6     2     7 ar  
     7     3     4 ar  
     8     3    32 1   
     9     4     5 ar  
    10     4    33 1   
    11     5     6 ar  
    12     5    34 1   
    13     6     7 ar  
    14     6    35 1   
    15     7     8 1   
    16     8     9 1   
    17     9    10 1   
    18     9    36 1   
    19     9    37 1   
    20    10    11 2   
    21    10    12 1   
    22    12    13 1   
    23    12    38 1   
    24    13    14 ar  
    25    13    15 ar  
    26    14    19 ar  
    27    14    39 1   
    28    15    16 ar  
    29    15    40 1   
    30    16    17 ar  
    31    16    41 1   
    32    17    18 2   
    33    17    19 ar  
    34    18    21 1   
    35    19    20 2   
    36    20    21 1   
    37    21    22 1   
    38    22    23 ar  
    39    22    28 ar  
    40    23    24 ar  
    41    23    42 1   
    42    24    25 ar  
    43    24    43 1   
    44    25    26 1   
    45    25    27 ar  
    46    26    44 1   
    47    26    45 1   
    48    26    46 1   
    49    27    28 ar  
    50    27    47 1   
    51    28    48 1   
@<TRIPOS>SUBSTRUCTURE
     1 O8B         1 TEMP              0 ****  ****    0 ROOT
