@<TRIPOS>MOLECULE
O8G
   36    38     1     0     0
SMALL
bcc


@<TRIPOS>ATOM
      1 C1          0.0400   -0.0980    0.0780 c3        1 O8G     -0.105400
      2 C4          1.5610    0.0510    0.1450 c3        1 O8G      0.083500
      3 N7          2.1050   -0.0330    1.4870 n         1 O8G     -0.459800
      4 C8          1.6490   -1.1750    2.2440 c3        1 O8G      0.083500
      5 C11         0.1280   -1.3610    2.2390 c3        1 O8G     -0.105400
      6 C14        -0.4040   -1.3590    0.8110 c3        1 O8G     -0.090000
      7 C16         2.6420    1.1040    2.0820 c         1 O8G      0.635100
      8 O17         2.7450    2.1660    1.4350 o         1 O8G     -0.606100
      9 C18         3.1550    1.0130    3.5240 c3        1 O8G      0.101800
     10 N21        -2.7380   -2.3030    0.2510 nc        1 O8G     -0.688000
     11 C22        -1.8870   -1.4530    0.8150 cd        1 O8G      0.507700
     12 O23        -2.6110   -0.4630    1.5470 os        1 O8G     -0.143100
     13 N24        -3.8970   -0.7070    1.4310 nd        1 O8G     -0.363300
     14 C25        -4.0260   -1.8170    0.6510 cc        1 O8G      0.625500
     15 C26        -5.2530   -2.4520    0.2550 cc        1 O8G     -0.193600
     16 C27        -6.5270   -2.0270    0.6120 cd        1 O8G     -0.108000
     17 C29        -7.5290   -2.8730    0.0560 cd        1 O8G     -0.165000
     18 C31        -6.9710   -3.8930   -0.6930 cc        1 O8G     -0.181100
     19 S33        -5.3140   -3.8210   -0.7150 ss        1 O8G      0.120200
     20 N34         4.1480    1.9780    3.9280 n2        1 O8G     -0.444200
     21 N36         3.9910    3.2170    3.7580 n1        1 O8G      0.232000
     22 N37         4.0480    4.3450    3.6810 n1        1 O8G     -0.018000
     23 H1         -0.4590    0.7970    0.5320 hc        1 O8G      0.067700
     24 H1A        -0.2640   -0.1530   -0.9990 hc        1 O8G      0.067700
     25 H4          2.0350   -0.7770   -0.4580 h1        1 O8G      0.064450
     26 H4A         1.8520    1.0370   -0.3180 h1        1 O8G      0.064450
     27 H8          2.1230   -2.0920    1.7840 h1        1 O8G      0.064450
     28 H8A         1.9900   -1.1120    3.3130 h1        1 O8G      0.064450
     29 H11        -0.1120   -2.3360    2.7360 hc        1 O8G      0.067700
     30 H11A       -0.3670   -0.5430    2.8250 hc        1 O8G      0.067700
     31 H14         0.0050   -2.2600    0.2670 hc        1 O8G      0.088700
     32 H18         2.2460    1.0370    4.1950 h1        1 O8G      0.081200
     33 H18A        3.7040    0.0390    3.6840 h1        1 O8G      0.081200
     34 H27        -6.7450   -1.1580    1.2380 ha        1 O8G      0.169000
     35 H29        -8.5980   -2.7190    0.2120 ha        1 O8G      0.158000
     36 H31        -7.5370   -4.6640   -1.2150 h4        1 O8G      0.175000
@<TRIPOS>BOND
     1    1    2 1   
     2    1    6 1   
     3    1   23 1   
     4    1   24 1   
     5    2    3 1   
     6    2   25 1   
     7    2   26 1   
     8    3    4 1   
     9    3    7 1   
    10    4    5 1   
    11    4   27 1   
    12    4   28 1   
    13    5    6 1   
    14    5   29 1   
    15    5   30 1   
    16    6   11 1   
    17    6   31 1   
    18    7    8 2   
    19    7    9 1   
    20    9   20 1   
    21    9   32 1   
    22    9   33 1   
    23   10   11 2   
    24   10   14 1   
    25   11   12 1   
    26   12   13 1   
    27   13   14 2   
    28   14   15 1   
    29   15   16 2   
    30   15   19 1   
    31   16   17 1   
    32   16   34 1   
    33   17   18 2   
    34   17   35 1   
    35   18   19 1   
    36   18   36 1   
    37   20   21 1   
    38   21   22 3   
@<TRIPOS>SUBSTRUCTURE
     1 O8G         1 TEMP              0 ****  ****    0 ROOT
