@<TRIPOS>MOLECULE
O8H
   59    63     1     0     0
SMALL
bcc


@<TRIPOS>ATOM
      1 C07        -2.8190    0.4120    0.5040 ca        1 O8H      0.007500
      2 C05        -2.6240    1.0230   -0.7270 ca        1 O8H     -0.120000
      3 C04        -1.3410    1.0970   -1.2800 ca        1 O8H      0.128900
      4 I01        -1.0570    1.9860   -3.0700 i         1 O8H     -0.039900
      5 C02        -0.2570    0.5550   -0.5820 ca        1 O8H     -0.120000
      6 C10        -0.4540   -0.0550    0.6490 ca        1 O8H      0.007500
      7 C09        -1.7400   -0.1480    1.2220 ca        1 O8H     -0.527500
      8 S12        -1.9580   -0.7890    2.6830 sy        1 O8H      1.479200
      9 O13        -0.8090   -0.8950    3.4420 o         1 O8H     -0.571800
     10 O16        -3.1780   -0.4980    3.2620 o         1 O8H     -0.571800
     11 N14        -2.2550   -2.5730    2.1270 n4        1 O8H     -0.710900
     12 C17        -1.5210   -3.5750    2.9500 c3        1 O8H      0.132500
     13 C20        -1.7270   -4.9520    2.4700 cc        1 O8H      0.121600
     14 C24        -2.0340   -6.1200    3.1980 cd        1 O8H     -0.101600
     15 N21        -1.5930   -5.3400    1.1100 nc        1 O8H     -0.359000
     16 N22        -1.7960   -6.5820    0.9990 nd        1 O8H     -0.126800
     17 N23        -2.0530   -7.1220    2.2250 na        1 O8H      0.065400
     18 C26        -2.3530   -8.5240    2.4490 c3        1 O8H     -0.032700
     19 C29        -3.5070   -8.7610    3.4410 c         1 O8H      0.643100
     20 O31        -3.9770   -7.8130    4.1040 o         1 O8H     -0.613100
     21 N30        -3.9260  -10.0620    3.6560 n         1 O8H     -0.434800
     22 C43        -3.5630  -11.1690    2.7960 c3        1 O8H      0.074500
     23 C40        -4.6860  -11.6070    1.8530 c3        1 O8H     -0.107900
     24 C32        -5.1490  -10.2950    4.4100 c3        1 O8H      0.074500
     25 C35        -6.3310  -10.7160    3.5360 c3        1 O8H     -0.107900
     26 C38        -5.9590  -11.8940    2.6420 c3        1 O8H     -0.087000
     27 C46        -7.0760  -12.1880    1.7060 cc        1 O8H      0.496700
     28 N50        -7.8760  -13.2360    1.5550 nd        1 O8H     -0.676000
     29 O47        -7.4130  -11.1810    0.7500 os        1 O8H     -0.152100
     30 N48        -8.4160  -11.6140    0.0180 nc        1 O8H     -0.365300
     31 C49        -8.7350  -12.8600    0.4690 cd        1 O8H      0.638500
     32 C51        -9.7710  -13.7180   -0.0340 cd        1 O8H     -0.209600
     33 C52       -10.6290  -13.4060   -1.0840 cc        1 O8H     -0.102000
     34 C54       -11.5430  -14.4680   -1.3370 cc        1 O8H     -0.165000
     35 C56       -11.3370  -15.5290   -0.4730 cd        1 O8H     -0.173100
     36 S58       -10.0970  -15.2440    0.5880 ss        1 O8H      0.128200
     37 H07        -3.8360    0.3800    0.9410 ha        1 O8H      0.170500
     38 H05        -3.4910    1.4550   -1.2600 ha        1 O8H      0.183000
     39 H02         0.7640    0.6140   -1.0000 ha        1 O8H      0.183000
     40 H10         0.4160   -0.4600    1.2010 ha        1 O8H      0.170500
     41 HN14       -1.9840   -2.7020    1.1500 hn        1 O8H      0.458800
     42 H17        -1.8790   -3.4840    4.0170 hx        1 O8H      0.111700
     43 H17A       -0.4220   -3.3060    2.9130 hx        1 O8H      0.111700
     44 H24        -2.2530   -6.3060    4.2540 h4        1 O8H      0.233000
     45 H26        -1.4230   -9.0170    2.8590 h1        1 O8H      0.107700
     46 H26A       -2.6140   -8.9910    1.4540 h1        1 O8H      0.107700
     47 H43        -3.3040  -12.0340    3.4760 h1        1 O8H      0.071950
     48 H43A       -2.6450  -10.9320    2.1930 h1        1 O8H      0.071950
     49 H40        -4.3560  -12.5320    1.3120 hc        1 O8H      0.073200
     50 H40A       -4.8870  -10.8140    1.0870 hc        1 O8H      0.073200
     51 H32        -4.9250  -11.1120    5.1530 h1        1 O8H      0.071950
     52 H32A       -5.4250   -9.3620    4.9800 h1        1 O8H      0.071950
     53 H35        -7.1810  -11.0030    4.2080 hc        1 O8H      0.073200
     54 H35A       -6.6710   -9.8550    2.9020 hc        1 O8H      0.073200
     55 H38        -5.7890  -12.8030    3.2890 hc        1 O8H      0.092700
     56 H52       -10.6130  -12.4700   -1.6480 ha        1 O8H      0.168000
     57 H54       -12.3040  -14.4310   -2.1190 ha        1 O8H      0.162000
     58 H56       -11.9140  -16.4530   -0.4760 h4        1 O8H      0.180000
     59 H142       -3.2520   -2.7900    2.1820 hn        1 O8H      0.458800
@<TRIPOS>BOND
     1    1    2 ar  
     2    1    7 ar  
     3    1   37 1   
     4    2    3 ar  
     5    2   38 1   
     6    3    4 1   
     7    3    5 ar  
     8    5    6 ar  
     9    5   39 1   
    10    6    7 ar  
    11    6   40 1   
    12    7    8 1   
    13    8    9 2   
    14    8   10 2   
    15    8   11 1   
    16   11   12 1   
    17   11   41 1   
    18   11   59 1   
    19   12   13 1   
    20   12   42 1   
    21   12   43 1   
    22   13   14 2   
    23   13   15 1   
    24   14   17 1   
    25   14   44 1   
    26   15   16 2   
    27   16   17 1   
    28   17   18 1   
    29   18   19 1   
    30   18   45 1   
    31   18   46 1   
    32   19   20 2   
    33   19   21 1   
    34   21   22 1   
    35   21   24 1   
    36   22   23 1   
    37   22   47 1   
    38   22   48 1   
    39   23   26 1   
    40   23   49 1   
    41   23   50 1   
    42   24   25 1   
    43   24   51 1   
    44   24   52 1   
    45   25   26 1   
    46   25   53 1   
    47   25   54 1   
    48   26   27 1   
    49   26   55 1   
    50   27   28 2   
    51   27   29 1   
    52   28   31 1   
    53   29   30 1   
    54   30   31 2   
    55   31   32 1   
    56   32   33 2   
    57   32   36 1   
    58   33   34 1   
    59   33   56 1   
    60   34   35 2   
    61   34   57 1   
    62   35   36 1   
    63   35   58 1   
@<TRIPOS>SUBSTRUCTURE
     1 O8H         1 TEMP              0 ****  ****    0 ROOT
