@<TRIPOS>MOLECULE
O8K
   48    48     1     0     0
SMALL
bcc


@<TRIPOS>ATOM
      1 C1          0.1260   -0.5380    0.2570 c3        1 O8K     -0.055900
      2 C2          1.5760   -0.3110    0.0410 c2        1 O8K     -0.121400
      3 C3          2.4170   -0.1240    1.0710 c2        1 O8K     -0.148200
      4 C4          3.8800    0.1270    0.9320 c3        1 O8K     -0.024500
      5 C5          4.1300    1.6180    0.7800 c3        1 O8K     -0.081100
      6 C6          4.6560   -0.4230    2.1420 c3        1 O8K      0.160100
      7 O7          5.8900    0.2800    2.1920 oh        1 O8K     -0.595800
      8 C8          4.8760   -1.9590    2.1350 c3        1 O8K      0.148300
      9 O9          4.0170   -2.5200    1.1390 os        1 O8K     -0.409600
     10 C10         3.8460   -3.9210    1.2770 c3        1 O8K      0.112700
     11 C11         6.2920   -2.4100    1.9570 c2        1 O8K     -0.240200
     12 C12         7.1090   -2.2490    0.9120 c2        1 O8K     -0.100200
     13 C13         6.8360   -1.4980   -0.3370 c3        1 O8K     -0.062200
     14 C14         6.0320   -2.3170   -1.3290 c3        1 O8K     -0.081400
     15 C15         5.5180   -1.4600   -2.4670 c3        1 O8K     -0.069400
     16 C16         4.5010   -2.1950   -3.3210 c3        1 O8K     -0.182400
     17 C17         3.1180   -1.6100   -3.1960 c         1 O8K      0.566100
     18 O18         2.5340   -1.1310   -4.1740 o         1 O8K     -0.537100
     19 C19         2.4820   -1.6700   -1.8350 c3        1 O8K     -0.184400
     20 C20         2.0080   -0.2980   -1.3870 c3        1 O8K     -0.033200
     21 H1         -0.1210   -0.6410    1.3410 hc        1 O8K      0.039700
     22 H1A        -0.4620    0.3190   -0.1590 hc        1 O8K      0.039700
     23 H1B        -0.1970   -1.4700   -0.2710 hc        1 O8K      0.039700
     24 H3          2.0340   -0.1380    2.1050 ha        1 O8K      0.118000
     25 H4          4.2610   -0.4040    0.0130 hc        1 O8K      0.072700
     26 H5          3.8680    2.1550    1.7220 hc        1 O8K      0.040367
     27 H5A         5.2090    1.8030    0.5570 hc        1 O8K      0.040367
     28 H5B         3.5120    2.0280   -0.0540 hc        1 O8K      0.040367
     29 H6          4.0800   -0.1780    3.0830 h1        1 O8K      0.032700
     30 HO7         6.4460   -0.1620    2.8450 ho        1 O8K      0.404000
     31 H8          4.5290   -2.3400    3.1440 h1        1 O8K      0.032700
     32 H10         4.8300   -4.4480    1.2120 h1        1 O8K      0.035367
     33 H10A        3.1900   -4.2020    0.4160 h1        1 O8K      0.035367
     34 H10B        3.3460   -4.1620    2.2480 h1        1 O8K      0.035367
     35 H11         6.6690   -2.9770    2.8290 ha        1 O8K      0.115000
     36 H12         8.1190   -2.6970    0.9610 ha        1 O8K      0.115000
     37 H13         6.2840   -0.5500   -0.0780 hc        1 O8K      0.060200
     38 H13A        7.8080   -1.1920   -0.8100 hc        1 O8K      0.060200
     39 H14         6.6670   -3.1460   -1.7380 hc        1 O8K      0.049700
     40 H14A        5.1670   -2.7940   -0.7910 hc        1 O8K      0.049700
     41 H15         6.3810   -1.1410   -3.1080 hc        1 O8K      0.047700
     42 H15A        5.0590   -0.5220   -2.0510 hc        1 O8K      0.047700
     43 H16         4.4470   -3.2770   -3.0290 hc        1 O8K      0.065200
     44 H16A        4.8130   -2.1550   -4.3990 hc        1 O8K      0.065200
     45 H19         3.2070   -2.0830   -1.0810 hc        1 O8K      0.073700
     46 H19A        1.6060   -2.3700   -1.8840 hc        1 O8K      0.073700
     47 H20         2.8380    0.4470   -1.5290 hc        1 O8K      0.054200
     48 H20A        1.1590    0.0290   -2.0450 hc        1 O8K      0.054200
@<TRIPOS>BOND
     1    1    2 1   
     2    1   21 1   
     3    1   22 1   
     4    1   23 1   
     5    2    3 2   
     6    2   20 1   
     7    3    4 1   
     8    3   24 1   
     9    4    5 1   
    10    4    6 1   
    11    4   25 1   
    12    5   26 1   
    13    5   27 1   
    14    5   28 1   
    15    6    7 1   
    16    6    8 1   
    17    6   29 1   
    18    7   30 1   
    19    8    9 1   
    20    8   11 1   
    21    8   31 1   
    22    9   10 1   
    23   10   32 1   
    24   10   33 1   
    25   10   34 1   
    26   11   12 2   
    27   11   35 1   
    28   12   13 1   
    29   12   36 1   
    30   13   14 1   
    31   13   37 1   
    32   13   38 1   
    33   14   15 1   
    34   14   39 1   
    35   14   40 1   
    36   15   16 1   
    37   15   41 1   
    38   15   42 1   
    39   16   17 1   
    40   16   43 1   
    41   16   44 1   
    42   17   18 2   
    43   17   19 1   
    44   19   20 1   
    45   19   45 1   
    46   19   46 1   
    47   20   47 1   
    48   20   48 1   
@<TRIPOS>SUBSTRUCTURE
     1 O8K         1 TEMP              0 ****  ****    0 ROOT
