@<TRIPOS>MOLECULE
molecule
   48    48     1     0     0
SMALL
bcc


@<TRIPOS>ATOM
      1 C1           0.0000     0.0000     0.0000 c3         1 O8K      -0.052900
      2 C2           1.5120     0.0000     0.0000 c2         1 O8K      -0.127400
      3 C3           2.1480     0.0000     1.1430 c2         1 O8K      -0.166200
      4 C4           3.6510     0.0170     1.2150 c3         1 O8K      -0.039500
      5 C5           4.1460     1.4670     1.1580 c3         1 O8K      -0.070100
      6 C6           4.1120    -0.6070     2.5350 c3         1 O8K       0.156100
      7 O7           4.8390     0.3630     3.2900 oh         1 O8K      -0.600800
      8 C8           5.0000    -1.8200     2.2670 c3         1 O8K       0.157300
      9 O9           4.1840    -2.9510     1.9530 os         1 O8K      -0.424600
     10 C10          4.7540    -4.2030     2.3360 c3         1 O8K       0.123700
     11 C11          5.9420    -1.5400     1.1250 c2         1 O8K      -0.199200
     12 C12          6.1490    -2.4500     0.2050 c2         1 O8K      -0.171200
     13 C13          7.0830    -2.1680    -0.9440 c3         1 O8K      -0.049200
     14 C14          6.4120    -2.5940    -2.2540 c3         1 O8K      -0.077400
     15 C15          5.3860    -1.5340    -2.6630 c3         1 O8K      -0.076400
     16 C16          4.2460    -2.2010    -3.4320 c3         1 O8K      -0.182400
     17 C17          2.9740    -1.4220    -3.2180 c          1 O8K       0.564100
     18 O18          2.4970    -0.7860    -4.1290 o          1 O8K      -0.529100
     19 C19          2.2980    -1.4310    -1.8700 c3         1 O8K      -0.177400
     20 C20          2.2490    -0.0070    -1.3130 c3         1 O8K      -0.033200
     21 H1          -0.3610    -0.9840     0.2750 hc         1 O8K       0.041700
     22 H1A         -0.3610     0.7300     0.7140 hc         1 O8K       0.041700
     23 H1B         -0.3610     0.2530    -0.9890 hc         1 O8K       0.041700
     24 H3           1.5790    -0.0000     2.0660 ha         1 O8K       0.122000
     25 H4           4.0620    -0.5420     0.3840 hc         1 O8K       0.075700
     26 H5           3.8860     1.9000     0.1990 hc         1 O8K       0.038367
     27 H5A          3.6810     2.0390     1.9510 hc         1 O8K       0.038367
     28 H5B          5.2220     1.4860     1.2820 hc         1 O8K       0.038367
     29 H6           3.2440    -0.9200     3.1020 h1         1 O8K       0.047700
     30 HO7          4.6130     0.2850     4.2020 ho         1 O8K       0.401000
     31 H8           5.5780    -2.0380     3.1560 h1         1 O8K       0.046700
     32 H10          5.8260    -4.0930     2.4480 h1         1 O8K       0.032700
     33 H10A         4.5450    -4.9430     1.5740 h1         1 O8K       0.032700
     34 H10B         4.3230    -4.5220     3.2770 h1         1 O8K       0.032700
     35 H11          6.4430    -0.5820     1.0600 ha         1 O8K       0.141000
     36 H12          5.6420    -3.4050     0.2660 ha         1 O8K       0.133000
     37 H13          8.0010    -2.7260    -0.8090 hc         1 O8K       0.049200
     38 H13A         7.3040    -1.1080    -0.9780 hc         1 O8K       0.049200
     39 H14          5.9130    -3.5450    -2.1120 hc         1 O8K       0.043700
     40 H14A         7.1620    -2.6900    -3.0290 hc         1 O8K       0.043700
     41 H15          4.9910    -1.0520    -1.7760 hc         1 O8K       0.051200
     42 H15A         5.8640    -0.7940    -3.2940 hc         1 O8K       0.051200
     43 H16          4.4850    -2.2190    -4.4890 hc         1 O8K       0.064700
     44 H16A         4.1130    -3.2150    -3.0750 hc         1 O8K       0.064700
     45 H19          1.2890    -1.8120    -1.9750 hc         1 O8K       0.068200
     46 H19A         2.8550    -2.0650    -1.1910 hc         1 O8K       0.068200
     47 H20          1.7360     0.6380    -2.0170 hc         1 O8K       0.057700
     48 H20A         3.2590     0.3560    -1.1620 hc         1 O8K       0.057700
@<TRIPOS>BOND
     1     1     2 1
     2     2     3 2
     3     2    20 1
     4     3     4 1
     5     4     5 1
     6     4     6 1
     7     6     7 1
     8     6     8 1
     9     8     9 1
    10     8    11 1
    11     9    10 1
    12    11    12 2
    13    12    13 1
    14    13    14 1
    15    14    15 1
    16    15    16 1
    17    16    17 1
    18    17    18 2
    19    17    19 1
    20    19    20 1
    21     1    21 1
    22     1    22 1
    23     1    23 1
    24     3    24 1
    25     4    25 1
    26     5    26 1
    27     5    27 1
    28     5    28 1
    29     6    29 1
    30     7    30 1
    31     8    31 1
    32    10    32 1
    33    10    33 1
    34    10    34 1
    35    11    35 1
    36    12    36 1
    37    13    37 1
    38    13    38 1
    39    14    39 1
    40    14    40 1
    41    15    41 1
    42    15    42 1
    43    16    43 1
    44    16    44 1
    45    19    45 1
    46    19    46 1
    47    20    47 1
    48    20    48 1
@<TRIPOS>SUBSTRUCTURE
     1 O8K         1 TEMP              0 ****  ****    0 ROOT
