@<TRIPOS>MOLECULE
O8M
   47    49     1     0     0
SMALL
bcc


@<TRIPOS>ATOM
      1 O2           0.0000     0.0000     0.0000 o          1 O8M      -0.359100
      2 C4           1.2130     0.0000     0.0000 c          1 O8M       0.291100
      3 C5           1.9670     0.0000     1.3050 c3         1 O8M       0.095800
      4 N2           1.0120    -0.0020     2.4220 n3         1 O8M      -0.502600
      5 C6           0.2460     1.2510     2.4620 c3         1 O8M       0.167100
      6 C5'          1.6980    -0.2410     3.6990 c3         1 O8M       0.144800
      7 C4'          0.6590    -0.4840     4.7960 c3         1 O8M       0.158100
      8 O4'         -0.0410    -1.7130     4.5440 os         1 O8M      -0.393600
      9 C1'         -0.3420    -2.2990     5.8290 c3         1 O8M       0.151800
     10 N5          -0.5820    -3.7370     5.6970 na         1 O8M       0.216000
     11 C11         -1.5860    -4.4520     6.3010 ca         1 O8M       0.286800
     12 N4          -2.5870    -4.1530     7.1220 nb         1 O8M      -0.683000
     13 C10         -3.4120    -5.0890     7.5420 ca         1 O8M       0.704900
     14 N3          -3.2960    -6.3530     7.1780 nb         1 O8M      -0.736000
     15 C9          -2.3250    -6.7460     6.3580 ca         1 O8M       0.593200
     16 N7          -2.2100    -8.0730     5.9830 nv         1 O8M      -0.471500
     17 C12         -1.4190    -5.7830     5.8830 ca         1 O8M      -0.250200
     18 N6          -0.3420    -5.8120     5.0630 nc         1 O8M      -0.478100
     19 C7           0.1480    -4.6110     4.9470 cd         1 O8M       0.187800
     20 C2'          0.9410    -2.0330     6.6570 c3         1 O8M       0.123100
     21 O2'          0.6510    -2.0120     8.0560 oh         1 O8M      -0.532800
     22 C3'          1.3630    -0.6290     6.1610 c3         1 O8M       0.131100
     23 O3'          0.9110     0.3800     7.0660 oh         1 O8M      -0.542800
     24 C8           1.3450    -4.2430     4.1110 c3         1 O8M       0.016600
     25 N1           1.8860    -0.0030    -1.1670 nz         1 O8M       0.199600
     26 H5           2.5880     0.8850     1.3630 h1         1 O8M       0.044700
     27 H5A          2.5900    -0.8840     1.3620 h1         1 O8M       0.044700
     28 H6           0.4330     1.8180     1.5570 h1         1 O8M       0.019033
     29 H6A          0.5520     1.8340     3.3220 h1         1 O8M       0.019033
     30 H6B         -0.8110     1.0260     2.5350 h1         1 O8M       0.019033
     31 H5'          2.2980     0.6240     3.9540 h1         1 O8M       0.022200
     32 H5'A         2.3370    -1.1110     3.6080 h1         1 O8M       0.022200
     33 H4'         -0.0450     0.3390     4.8330 h1         1 O8M       0.052700
     34 H1'         -1.1930    -1.8040     6.2810 h2         1 O8M       0.084700
     35 H10         -4.2170    -4.8110     8.2110 h5         1 O8M       0.000100
     36 HN7         -2.8620    -8.7490     6.3280 hn         1 O8M       0.278300
     37 HN7A        -1.4750    -8.3570     5.3660 hn         1 O8M       0.278300
     38 H2'          1.7040    -2.7660     6.4260 h1         1 O8M       0.027700
     39 HO2'         1.3670    -2.3990     8.5310 ho         1 O8M       0.395000
     40 H3'          2.4380    -0.5810     6.0370 h1         1 O8M       0.008700
     41 HO3'         1.6500     0.8690     7.3870 ho         1 O8M       0.395000
     42 H8           1.7250    -5.1280     3.6140 hc         1 O8M       0.011367
     43 H8A          2.1170    -3.8280     4.7480 hc         1 O8M       0.011367
     44 H8B          1.0560    -3.5080     3.3690 hc         1 O8M       0.011367
     45 HN1          2.3270    -0.8920    -1.2950 hn         1 O8M       0.246133
     46 HN1A         1.2490     0.1640    -1.9200 hn         1 O8M       0.246133
     47 H13          2.5820     0.7160    -1.1530 hn         1 O8M       0.246133
@<TRIPOS>BOND
     1     1     2 2   
     2     2     3 1   
     3     2    25 1   
     4     3     4 1   
     5     3    26 1   
     6     3    27 1   
     7     4     5 1   
     8     4     6 1   
     9     5    28 1   
    10     5    29 1   
    11     5    30 1   
    12     6     7 1   
    13     6    31 1   
    14     6    32 1   
    15     7     8 1   
    16     7    22 1   
    17     7    33 1   
    18     8     9 1   
    19     9    10 1   
    20     9    20 1   
    21     9    34 1   
    22    10    11 1   
    23    10    19 1   
    24    11    12 ar  
    25    11    17 ar  
    26    12    13 ar  
    27    13    14 ar  
    28    13    35 1   
    29    14    15 ar  
    30    15    16 1   
    31    15    17 ar  
    32    16    36 1   
    33    16    37 1   
    34    17    18 1   
    35    18    19 2   
    36    19    24 1   
    37    20    21 1   
    38    20    22 1   
    39    20    38 1   
    40    21    39 1   
    41    22    23 1   
    42    22    40 1   
    43    23    41 1   
    44    24    42 1   
    45    24    43 1   
    46    24    44 1   
    47    25    45 1   
    48    25    46 1   
    49    25    47 1   
@<TRIPOS>SUBSTRUCTURE
     1 O8M         1 TEMP              0 ****  ****    0 ROOT
