@<TRIPOS>MOLECULE
molecule
   87    86     1     0     0
SMALL
bcc


@<TRIPOS>ATOM
      1 C28          0.0000     0.0000     0.0000 c3         1 O8N      -0.092100
      2 C27          1.5300     0.0000     0.0000 c3         1 O8N      -0.084400
      3 C26          2.0400     0.0000     1.4420 c3         1 O8N      -0.081400
      4 C25          3.5700    -0.0000     1.4420 c3         1 O8N      -0.082400
      5 C24          4.0800    -0.0000     2.8850 c3         1 O8N      -0.081400
      6 C23          5.6100    -0.0000     2.8860 c3         1 O8N      -0.082400
      7 C22          6.1190    -0.0000     4.3280 c3         1 O8N      -0.081400
      8 C21          7.6500    -0.0000     4.3280 c3         1 O8N      -0.082400
      9 C20          8.1600    -0.0000     5.7700 c3         1 O8N      -0.082400
     10 C19          9.6900    -0.0000     5.7710 c3         1 O8N      -0.081400
     11 C18         10.1990    -0.0000     7.2130 c3         1 O8N      -0.082400
     12 C17         11.7290    -0.0000     7.2130 c3         1 O8N      -0.082400
     13 C16         12.2400    -0.0000     8.6560 c3         1 O8N      -0.082400
     14 C15         13.7700    -0.0000     8.6560 c3         1 O8N      -0.082400
     15 C14         14.2790    -0.0000    10.0980 c3         1 O8N      -0.081400
     16 C13         15.8090    -0.0000    10.0990 c3         1 O8N      -0.082400
     17 C12         16.3190    -0.0000    11.5410 c3         1 O8N      -0.082400
     18 C11         17.8500    -0.0000    11.5410 c3         1 O8N      -0.081400
     19 C10         18.3590    -0.0000    12.9830 c3         1 O8N      -0.082400
     20 C9          19.8890    -0.0000    12.9840 c3         1 O8N      -0.082400
     21 C8          20.3990    -0.0000    14.4270 c3         1 O8N      -0.082400
     22 C7          21.9280    -0.0000    14.4260 c3         1 O8N      -0.082400
     23 C6          22.4390    -0.0000    15.8690 c3         1 O8N      -0.082400
     24 C5          23.9690    -0.0000    15.8690 c3         1 O8N      -0.082400
     25 C4          24.4790    -0.0000    17.3120 c3         1 O8N      -0.079400
     26 C3          26.0080    -0.0000    17.3120 c3         1 O8N      -0.082400
     27 C2          26.5180    -0.0000    18.7550 c3         1 O8N      -0.081400
     28 C1          28.0490    -0.0000    18.7550 c3         1 O8N       0.139400
     29 O           28.5240    -0.0000    20.1020 oh         1 O8N      -0.611800
     30 H1          -0.3610    -0.0000    -1.0210 hc         1 O8N       0.032367
     31 H2          -0.3610    -0.8850     0.5110 hc         1 O8N       0.032367
     32 H3          -0.3610     0.8850     0.5110 hc         1 O8N       0.032367
     33 H4           1.8920     0.8850    -0.5110 hc         1 O8N       0.039700
     34 H5           1.8920    -0.8850    -0.5110 hc         1 O8N       0.039700
     35 H6           1.6790    -0.8850     1.9530 hc         1 O8N       0.040700
     36 H7           1.6790     0.8850     1.9530 hc         1 O8N       0.040700
     37 H8           3.9310    -0.8850     0.9310 hc         1 O8N       0.040700
     38 H9           3.9310     0.8850     0.9310 hc         1 O8N       0.040700
     39 H10          3.7190     0.8840     3.3950 hc         1 O8N       0.040700
     40 H11          3.7190    -0.8840     3.3950 hc         1 O8N       0.040700
     41 H12          5.9710    -0.8840     2.3750 hc         1 O8N       0.040700
     42 H13          5.9710     0.8840     2.3750 hc         1 O8N       0.040700
     43 H14          5.7580     0.8850     4.8380 hc         1 O8N       0.040700
     44 H15          5.7580    -0.8850     4.8380 hc         1 O8N       0.040700
     45 H16          8.0110     0.8850     3.8170 hc         1 O8N       0.040700
     46 H17          8.0110    -0.8850     3.8170 hc         1 O8N       0.040700
     47 H18          7.7990     0.8840     6.2810 hc         1 O8N       0.040700
     48 H19          7.7990    -0.8840     6.2810 hc         1 O8N       0.040700
     49 H20         10.0510    -0.8840     5.2610 hc         1 O8N       0.040700
     50 H21         10.0510     0.8840     5.2610 hc         1 O8N       0.040700
     51 H22          9.8380    -0.8850     7.7240 hc         1 O8N       0.040700
     52 H23          9.8380     0.8850     7.7240 hc         1 O8N       0.040700
     53 H24         12.0910    -0.8850     6.7020 hc         1 O8N       0.040700
     54 H25         12.0910     0.8850     6.7020 hc         1 O8N       0.040700
     55 H26         11.8780     0.8850     9.1670 hc         1 O8N       0.040700
     56 H27         11.8780    -0.8850     9.1670 hc         1 O8N       0.040700
     57 H28         14.1310     0.8850     8.1450 hc         1 O8N       0.040700
     58 H29         14.1310    -0.8850     8.1450 hc         1 O8N       0.040700
     59 H30         13.9180     0.8840    10.6080 hc         1 O8N       0.040700
     60 H31         13.9180    -0.8840    10.6080 hc         1 O8N       0.040700
     61 H32         16.1700     0.8840     9.5880 hc         1 O8N       0.040700
     62 H33         16.1700    -0.8840     9.5880 hc         1 O8N       0.040700
     63 H34         15.9580     0.8850    12.0520 hc         1 O8N       0.040700
     64 H35         15.9580    -0.8850    12.0520 hc         1 O8N       0.040700
     65 H36         18.2110    -0.8850    11.0310 hc         1 O8N       0.040700
     66 H37         18.2110     0.8850    11.0310 hc         1 O8N       0.040700
     67 H38         17.9980     0.8840    13.4940 hc         1 O8N       0.040700
     68 H39         17.9980    -0.8840    13.4940 hc         1 O8N       0.040700
     69 H40         20.2500     0.8840    12.4740 hc         1 O8N       0.040700
     70 H41         20.2500    -0.8840    12.4740 hc         1 O8N       0.040700
     71 H42         20.0380    -0.8850    14.9380 hc         1 O8N       0.041700
     72 H43         20.0380     0.8850    14.9380 hc         1 O8N       0.041700
     73 H44         22.2890    -0.8850    13.9160 hc         1 O8N       0.040700
     74 H45         22.2890     0.8850    13.9160 hc         1 O8N       0.040700
     75 H46         22.0780    -0.8850    16.3800 hc         1 O8N       0.041700
     76 H47         22.0780     0.8850    16.3800 hc         1 O8N       0.041700
     77 H48         24.3300     0.8850    15.3580 hc         1 O8N       0.040700
     78 H49         24.3300    -0.8850    15.3580 hc         1 O8N       0.040700
     79 H50         24.1180     0.8840    17.8220 hc         1 O8N       0.043700
     80 H51         24.1180    -0.8840    17.8220 hc         1 O8N       0.043700
     81 H52         26.3690    -0.8840    16.8010 hc         1 O8N       0.040700
     82 H53         26.3690     0.8840    16.8010 hc         1 O8N       0.040700
     83 H54         26.1570     0.8850    19.2650 hc         1 O8N       0.053700
     84 H55         26.1570    -0.8850    19.2650 hc         1 O8N       0.053700
     85 H56         28.4100     0.8850    18.2440 h1         1 O8N       0.018700
     86 H57         28.4100    -0.8850    18.2440 h1         1 O8N       0.018700
     87 H58         29.4670     0.0000    20.1020 ho         1 O8N       0.401000
@<TRIPOS>BOND
     1     2     3 1
     2     2     1 1
     3     3     4 1
     4     4     5 1
     5     5     6 1
     6     6     7 1
     7     7     8 1
     8     9     8 1
     9     9    10 1
    10    12    11 1
    11    12    13 1
    12    11    10 1
    13    13    14 1
    14    14    15 1
    15    15    16 1
    16    21    22 1
    17    21    20 1
    18    19    20 1
    19    19    18 1
    20    22    23 1
    21    16    17 1
    22    17    18 1
    23    23    24 1
    24    24    25 1
    25    25    26 1
    26    26    27 1
    27    27    28 1
    28    29    28 1
    29     1    30 1
    30     1    31 1
    31     1    32 1
    32     2    33 1
    33     2    34 1
    34     3    35 1
    35     3    36 1
    36     4    37 1
    37     4    38 1
    38     5    39 1
    39     5    40 1
    40     6    41 1
    41     6    42 1
    42     7    43 1
    43     7    44 1
    44     8    45 1
    45     8    46 1
    46     9    47 1
    47     9    48 1
    48    10    49 1
    49    10    50 1
    50    11    51 1
    51    11    52 1
    52    12    53 1
    53    12    54 1
    54    13    55 1
    55    13    56 1
    56    14    57 1
    57    14    58 1
    58    15    59 1
    59    15    60 1
    60    16    61 1
    61    16    62 1
    62    17    63 1
    63    17    64 1
    64    18    65 1
    65    18    66 1
    66    19    67 1
    67    19    68 1
    68    20    69 1
    69    20    70 1
    70    21    71 1
    71    21    72 1
    72    22    73 1
    73    22    74 1
    74    23    75 1
    75    23    76 1
    76    24    77 1
    77    24    78 1
    78    25    79 1
    79    25    80 1
    80    26    81 1
    81    26    82 1
    82    27    83 1
    83    27    84 1
    84    28    85 1
    85    28    86 1
    86    29    87 1
@<TRIPOS>SUBSTRUCTURE
     1 O8N         1 TEMP              0 ****  ****    0 ROOT
