@<TRIPOS>MOLECULE
O90
   52    54     1     0     0
SMALL
bcc


@<TRIPOS>ATOM
      1 C1          0.4430   -0.1290   -0.1120 ca        1 O90     -0.001300
      2 C2          1.8130   -0.2110    0.1640 ca        1 O90     -0.137000
      3 C4          2.2720   -0.0940    1.4770 ca        1 O90      0.026400
      4 C5          1.3860    0.1020    2.5460 ca        1 O90     -0.033100
      5 C6          0.0170    0.1760    2.2580 ca        1 O90     -0.141000
      6 C8         -0.4500    0.0620    0.9550 ca        1 O90     -0.109000
      7 S10         2.0610    0.2400    4.1020 ss        1 O90     -0.186000
      8 C11         0.6730    0.2090    5.1940 c3        1 O90     -0.045300
      9 C14         1.2280    0.1600    6.5950 c3        1 O90     -0.073400
     10 C17         0.0850    0.1040    7.5960 c3        1 O90      0.126400
     11 O20         0.7070    0.1370    8.8920 os        1 O90     -0.319900
     12 C21        -0.1290    0.0510    9.9780 ca        1 O90      0.175100
     13 C22         0.5400    0.0220   11.2290 ca        1 O90     -0.091300
     14 C23        -0.3000   -0.0630   12.3280 ca        1 O90      0.072100
     15 C24        -1.7280   -0.1190   12.2520 ca        1 O90     -0.235900
     16 C25        -2.3440   -0.0860   11.0080 ca        1 O90     -0.024000
     17 C27        -1.5360   -0.0020    9.8770 ca        1 O90     -0.216000
     18 C29        -2.1260   -0.2060   13.6560 cc        1 O90      0.281900
     19 N30        -1.0330   -0.2010   14.4340 nd        1 O90     -0.334200
     20 O31         0.0600   -0.1190   13.6980 os        1 O90      0.003400
     21 C32        -3.5410   -0.2900   14.1970 c3        1 O90      0.647600
     22 F33        -3.8790    0.7430   15.0340 f         1 O90     -0.225967
     23 F34        -4.5130   -0.2800   13.2290 f         1 O90     -0.225967
     24 F35        -3.7930   -1.4250   14.9250 f         1 O90     -0.225967
     25 C36         2.0180    0.0640   11.3470 c3        1 O90     -0.023100
     26 C39         2.5640    1.4660   11.1450 c3        1 O90     -0.076400
     27 C42         4.0660    1.4850   11.2640 c3        1 O90     -0.092100
     28 CL46        3.9510   -0.1850    1.7830 cl        1 O90     -0.125400
     29 C47        -0.0580   -0.2210   -1.5020 c3        1 O90     -0.183100
     30 C50        -1.2980   -1.1400   -1.6530 c         1 O90      0.919600
     31 O51        -2.3670   -0.7980   -1.0700 o         1 O90     -0.835300
     32 O52        -1.1750   -2.1580   -2.3850 o         1 O90     -0.835300
     33 H2          2.5270   -0.3770   -0.6560 ha        1 O90      0.141000
     34 H6         -0.7090    0.3250    3.0710 ha        1 O90      0.116000
     35 H8         -1.5350    0.0860    0.7260 ha        1 O90      0.199000
     36 H11         0.0390    1.1200    5.0570 h1        1 O90      0.067200
     37 H11A        0.0290   -0.6820    4.9920 h1        1 O90      0.067200
     38 H14         1.8820   -0.7430    6.7260 hc        1 O90      0.070200
     39 H14A        1.8590    1.0650    6.8000 hc        1 O90      0.070200
     40 H17        -0.5920    0.9920    7.4870 h1        1 O90      0.047200
     41 H17A       -0.5040   -0.8440    7.4860 h1        1 O90      0.047200
     42 H25        -3.4400   -0.1280   10.9200 ha        1 O90      0.158000
     43 H27        -2.0180    0.0240    8.8880 ha        1 O90      0.154000
     44 H36         2.4640   -0.6190   10.5720 hc        1 O90      0.061200
     45 H36A        2.3230   -0.3170   12.3590 hc        1 O90      0.061200
     46 H39         2.1150    2.1570   11.9040 hc        1 O90      0.047200
     47 H39A        2.2570    1.8330   10.1290 hc        1 O90      0.047200
     48 H42         4.4510    2.5220   11.1110 hc        1 O90      0.033700
     49 H42A        4.5310    0.8200   10.4960 hc        1 O90      0.033700
     50 H42B        4.3880    1.1350   12.2740 hc        1 O90      0.033700
     51 H47        -0.3670    0.8020   -1.8420 hc        1 O90      0.044200
     52 H47A        0.7460   -0.5920   -2.1860 hc        1 O90      0.044200
@<TRIPOS>BOND
     1    1    2 ar  
     2    1    6 ar  
     3    1   29 1   
     4    2    3 ar  
     5    2   33 1   
     6    3    4 ar  
     7    3   28 1   
     8    4    5 ar  
     9    4    7 1   
    10    5    6 ar  
    11    5   34 1   
    12    6   35 1   
    13    7    8 1   
    14    8    9 1   
    15    8   36 1   
    16    8   37 1   
    17    9   10 1   
    18    9   38 1   
    19    9   39 1   
    20   10   11 1   
    21   10   40 1   
    22   10   41 1   
    23   11   12 1   
    24   12   13 ar  
    25   12   17 ar  
    26   13   14 ar  
    27   13   25 1   
    28   14   15 ar  
    29   14   20 1   
    30   15   16 ar  
    31   15   18 1   
    32   16   17 ar  
    33   16   42 1   
    34   17   43 1   
    35   18   19 2   
    36   18   21 1   
    37   19   20 1   
    38   21   22 1   
    39   21   23 1   
    40   21   24 1   
    41   25   26 1   
    42   25   44 1   
    43   25   45 1   
    44   26   27 1   
    45   26   46 1   
    46   26   47 1   
    47   27   48 1   
    48   27   49 1   
    49   27   50 1   
    50   29   30 1   
    51   29   51 1   
    52   29   52 1   
    53   30   31 1   
    54   30   32 1   
@<TRIPOS>SUBSTRUCTURE
     1 O90         1 TEMP              0 ****  ****    0 ROOT
