@<TRIPOS>MOLECULE
molecule
   44    46     1     0     0
SMALL
bcc


@<TRIPOS>ATOM
      1 C12          0.0000     0.0000     0.0000 c3         1 O92       0.101300
      2 N3           1.4650     0.0000     0.0000 ns         1 O92      -0.566900
      3 C6           2.1400     0.0000     1.1670 c          1 O92       0.589600
      4 O1           1.5310     0.0010     2.2200 o          1 O92      -0.624100
      5 C4           3.6170    -0.0000     1.1670 ca         1 O92       0.186500
      6 N2           4.2830    -0.1070     0.0220 nb         1 O92      -0.616000
      7 C3           4.3210     0.1180     2.3770 ca         1 O92       0.637900
      8 N4           3.6340     0.2350     3.5700 nv         1 O92      -0.982500
      9 N1           5.6500     0.1170     2.3710 nb         1 O92      -0.721000
     10 C2           6.3070     0.0050     1.2330 ca         1 O92       0.385900
     11 C1           5.6090    -0.1070     0.0260 cp         1 O92       0.275500
     12 C5           6.3530    -0.2260    -1.2510 cp         1 O92      -0.144500
     13 C11          7.7430    -0.3320    -1.2430 ca         1 O92      -0.027000
     14 C7           5.6650    -0.2390    -2.4620 ca         1 O92      -0.040000
     15 C8           6.3610    -0.3500    -3.6490 ca         1 O92      -0.140000
     16 C9           7.7420    -0.4490    -3.6360 ca         1 O92       0.117400
     17 Cl1          8.6140    -0.5880    -5.1310 cl         1 O92      -0.075400
     18 C10          8.4310    -0.4430    -2.4340 ca         1 O92      -0.311500
     19 S1          10.1880    -0.5760    -2.4260 sy         1 O92       1.425200
     20 O2          10.6680     0.3980    -3.3420 o          1 O92      -0.613800
     21 O3          10.5800    -0.6190    -1.0610 o          1 O92      -0.613800
     22 N5          10.5700    -2.0520    -3.0700 nu         1 O92      -0.753500
     23 C14         10.2390    -3.2230    -2.3810 ca         1 O92       0.164600
     24 C17          9.0990    -3.2650    -1.5890 ca         1 O92      -0.184000
     25 C18          8.7730    -4.4230    -0.9090 ca         1 O92      -0.076000
     26 C15          9.5790    -5.5400    -1.0150 ca         1 O92      -0.170000
     27 C16         10.7180    -5.5040    -1.8020 ca         1 O92       0.131900
     28 F2          11.5040    -6.5980    -1.9030 f          1 O92      -0.122900
     29 C13         11.0470    -4.3480    -2.4910 ca         1 O92       0.061900
     30 F1          12.1540    -4.3140    -3.2640 f          1 O92      -0.126900
     31 H121        -0.3610    -0.0010    -1.0210 h1         1 O92       0.044367
     32 H122        -0.3610     0.8850     0.5100 h1         1 O92       0.044367
     33 H123        -0.3610    -0.8840     0.5120 h1         1 O92       0.044367
     34 H3           1.9650     0.0050    -0.8670 hn         1 O92       0.330500
     35 H41N         2.7650     0.7310     3.6000 hn         1 O92       0.459800
     36 H42N         4.0320    -0.1280     4.4140 hn         1 O92       0.459800
     37 H2           7.3900     0.0050     1.2320 h4         1 O92       0.041100
     38 H11          8.2820    -0.3270    -0.3040 ha         1 O92       0.165000
     39 H7           4.5850    -0.1620    -2.4730 ha         1 O92       0.159000
     40 H8           5.8270    -0.3610    -4.5910 ha         1 O92       0.155000
     41 H5          11.1280    -2.1040    -3.8990 hn         1 O92       0.477800
     42 H17          8.4650    -2.3910    -1.5050 ha         1 O92       0.151000
     43 H18          7.8830    -4.4540    -0.2920 ha         1 O92       0.146000
     44 H15          9.3200    -6.4460    -0.4800 ha         1 O92       0.155000
@<TRIPOS>BOND
     1     1     2 1
     2     2     3 1
     3     3     4 2
     4     3     5 1
     5     5     6 ar
     6     5     7 ar
     7     6    11 ar
     8     7     8 1
     9     7     9 ar
    10     9    10 ar
    11    10    11 ar
    12    11    12 1
    13    12    13 ar
    14    12    14 ar
    15    13    18 ar
    16    14    15 ar
    17    15    16 ar
    18    16    17 1
    19    16    18 ar
    20    18    19 1
    21    19    20 2
    22    19    21 2
    23    19    22 1
    24    22    23 1
    25    23    24 ar
    26    23    29 ar
    27    24    25 ar
    28    25    26 ar
    29    26    27 ar
    30    27    28 1
    31    27    29 ar
    32    29    30 1
    33     1    31 1
    34     1    32 1
    35     1    33 1
    36     2    34 1
    37     8    35 1
    38     8    36 1
    39    10    37 1
    40    13    38 1
    41    14    39 1
    42    15    40 1
    43    22    41 1
    44    24    42 1
    45    25    43 1
    46    26    44 1
@<TRIPOS>SUBSTRUCTURE
     1 O92         1 TEMP              0 ****  ****    0 ROOT
