@<TRIPOS>MOLECULE
O92
   44    46     1     0     0
SMALL
bcc


@<TRIPOS>ATOM
      1 C12          0.0000     0.0000     0.0000 c3         1 O92       0.082300
      2 N3           1.4650     0.0000     0.0000 ns         1 O92      -0.165900
      3 C6           2.1400     0.0000     1.1670 c          1 O92       0.504600
      4 O1           1.5310     0.0010     2.2200 o          1 O92      -0.677100
      5 C4           3.6170    -0.0000     1.1670 ca         1 O92       0.110500
      6 N2           4.2830    -0.1070     0.0220 nb         1 O92      -0.484000
      7 C3           4.3210     0.1180     2.3770 ca         1 O92       0.452900
      8 N4           3.6340     0.2350     3.5700 nv         1 O92      -0.492500
      9 N1           5.6500     0.1170     2.3710 nb         1 O92      -0.630000
     10 C2           6.3070     0.0050     1.2330 ca         1 O92       0.380900
     11 C1           5.6090    -0.1070     0.0260 cp         1 O92       0.217500
     12 C5           6.3530    -0.2260    -1.2510 cp         1 O92      -0.149500
     13 C11          7.7430    -0.3320    -1.2430 ca         1 O92       0.000000
     14 C7           5.6650    -0.2390    -2.4620 ca         1 O92      -0.020000
     15 C8           6.3610    -0.3500    -3.6490 ca         1 O92      -0.122000
     16 C9           7.7420    -0.4490    -3.6360 ca         1 O92       0.045400
     17 Cl1          8.6140    -0.5880    -5.1310 cl         1 O92       0.014600
     18 C10          8.4310    -0.4430    -2.4340 ca         1 O92      -0.158500
     19 S1          10.1880    -0.5760    -2.4260 sy         1 O92       1.039200
     20 O2          10.6680     0.3980    -3.3420 o          1 O92      -0.570300
     21 O3          10.5800    -0.6190    -1.0610 o          1 O92      -0.570300
     22 N5          10.5700    -2.0520    -3.0700 nu         1 O92      -0.381500
     23 C14         10.2390    -3.2230    -2.3810 ca         1 O92       0.094600
     24 C17          9.0990    -3.2650    -1.5890 ca         1 O92      -0.180000
     25 C18          8.7730    -4.4230    -0.9090 ca         1 O92      -0.040000
     26 C15          9.5790    -5.5400    -1.0150 ca         1 O92      -0.144000
     27 C16         10.7180    -5.5040    -1.8020 ca         1 O92       0.115900
     28 F2          11.5040    -6.5980    -1.9030 f          1 O92      -0.115900
     29 C13         11.0470    -4.3480    -2.4910 ca         1 O92       0.031900
     30 F1          12.1540    -4.3140    -3.2640 f          1 O92      -0.113900
     31 H121        -0.3610    -0.0010    -1.0210 h1         1 O92       0.011033
     32 H122        -0.3610     0.8850     0.5100 h1         1 O92       0.011033
     33 H123        -0.3610    -0.8840     0.5120 h1         1 O92       0.011033
     34 H3           1.9650     0.0050    -0.8670 hn         1 O92       0.185500
     35 H41N         2.7650     0.7310     3.6000 hn         1 O92       0.294300
     36 H42N         4.0320    -0.1280     4.4140 hn         1 O92       0.294300
     37 H2           7.3900     0.0050     1.2320 h4         1 O92      -0.001900
     38 H11          8.2820    -0.3270    -0.3040 ha         1 O92       0.142000
     39 H7           4.5850    -0.1620    -2.4730 ha         1 O92       0.122000
     40 H8           5.8270    -0.3610    -4.5910 ha         1 O92       0.122000
     41 H5          11.1280    -2.1040    -3.8990 hn         1 O92       0.359800
     42 H17          8.4650    -2.3910    -1.5050 ha         1 O92       0.139000
     43 H18          7.8830    -4.4540    -0.2920 ha         1 O92       0.109000
     44 H15          9.3200    -6.4460    -0.4800 ha         1 O92       0.125000
@<TRIPOS>BOND
     1     1     2 1   
     2     1    31 1   
     3     1    32 1   
     4     1    33 1   
     5     2     3 1   
     6     2    34 1   
     7     3     4 2   
     8     3     5 1   
     9     5     6 ar  
    10     5     7 ar  
    11     6    11 ar  
    12     7     8 1   
    13     7     9 ar  
    14     8    35 1   
    15     8    36 1   
    16     9    10 ar  
    17    10    11 ar  
    18    10    37 1   
    19    11    12 1   
    20    12    13 ar  
    21    12    14 ar  
    22    13    18 ar  
    23    13    38 1   
    24    14    15 ar  
    25    14    39 1   
    26    15    16 ar  
    27    15    40 1   
    28    16    17 1   
    29    16    18 ar  
    30    18    19 1   
    31    19    20 2   
    32    19    21 2   
    33    19    22 1   
    34    22    23 1   
    35    22    41 1   
    36    23    24 ar  
    37    23    29 ar  
    38    24    25 ar  
    39    24    42 1   
    40    25    26 ar  
    41    25    43 1   
    42    26    27 ar  
    43    26    44 1   
    44    27    28 1   
    45    27    29 ar  
    46    29    30 1   
@<TRIPOS>SUBSTRUCTURE
     1 O92         1 TEMP              0 ****  ****    0 ROOT
