@<TRIPOS>MOLECULE
molecule
   45    48     1     0     0
SMALL
bcc


@<TRIPOS>ATOM
      1 N3           0.0000     0.0000     0.0000 nu         1 O95      -0.581100
      2 O4           1.4630     0.0000     0.0000 oh         1 O95      -0.384300
      3 C16         -0.5010     0.0000     1.3040 ca         1 O95       0.186600
      4 C1          -1.7140    -0.6030     1.5810 ca         1 O95      -0.057300
      5 C20         -2.4970    -1.2620     0.4750 c3         1 O95      -0.064800
      6 C2          -2.2090    -0.6010     2.8780 ca         1 O95      -0.163300
      7 C3          -3.5320    -1.2620     3.1680 c3         1 O95       0.679200
      8 F2          -3.8270    -1.1370     4.5300 f          1 O95      -0.220967
      9 F1          -4.5370    -0.6450     2.4150 f          1 O95      -0.220967
     10 F           -3.4620    -2.6180     2.8280 f          1 O95      -0.220967
     11 C4          -1.5170    -0.0130     3.8890 ca         1 O95      -0.033000
     12 C5          -0.2720     0.6150     3.6440 ca         1 O95       0.121400
     13 C15          0.2280     0.6060     2.3350 ca         1 O95      -0.064100
     14 N20          0.5360     1.2360     4.5070 nc         1 O95      -0.522100
     15 C6           1.6340     1.7410     4.0570 cc         1 O95       0.379900
     16 S1           1.7790     1.4410     2.3300 ss         1 O95      -0.009100
     17 C7           2.6330     2.4570     4.8780 ce         1 O95       0.571300
     18 O1           3.7720     2.9730     4.3680 os         1 O95      -0.427400
     19 C14          4.6710     3.2210     5.4680 c3         1 O95       0.110400
     20 C8           3.6770     3.3850     6.6440 c3         1 O95       0.000500
     21 N1           2.4940     2.6540     6.1510 n2         1 O95      -0.562900
     22 C9           3.3490     4.8380     6.8720 c          1 O95       0.680100
     23 O20          2.3140     5.3020     6.4410 o          1 O95      -0.569100
     24 N2           4.2070     5.6230     7.5550 n          1 O95      -0.501800
     25 C13          4.0120     7.0510     7.8490 c3         1 O95       0.099500
     26 C12          5.2560     7.5310     8.6260 c3         1 O95      -0.097400
     27 C11          6.3360     6.4880     8.2340 c3         1 O95      -0.097400
     28 C10          5.4900     5.1910     8.1360 c3         1 O95       0.099500
     29 H1          -0.5000     0.4700    -0.7280 hn         1 O95       0.441800
     30 H2           1.7780    -0.2350    -0.8570 ho         1 O95       0.412000
     31 H3          -3.2720    -0.5880     0.1300 hc         1 O95       0.058700
     32 H4          -1.8330    -1.4980    -0.3470 hc         1 O95       0.058700
     33 H5          -2.9500    -2.1730     0.8460 hc         1 O95       0.058700
     34 H6          -1.9240    -0.0240     4.8940 ha         1 O95       0.169000
     35 H8           5.3260     2.3730     5.6310 h1         1 O95       0.073700
     36 H9           5.2350     4.1320     5.3090 h1         1 O95       0.073700
     37 H10          4.0660     2.9230     7.5430 h1         1 O95       0.097700
     38 H13          3.1260     7.1840     8.4570 h1         1 O95       0.049700
     39 H14          3.9190     7.6070     6.9240 h1         1 O95       0.049700
     40 H15          5.5490     8.5230     8.3020 hc         1 O95       0.057200
     41 H16          5.0720     7.5070     9.6930 hc         1 O95       0.057200
     42 H17          7.0880     6.4000     9.0100 hc         1 O95       0.057200
     43 H18          6.7800     6.7320     7.2770 hc         1 O95       0.057200
     44 H19          5.9750     4.4740     7.4850 h1         1 O95       0.049700
     45 H20          5.3330     4.7690     9.1220 h1         1 O95       0.049700
@<TRIPOS>BOND
     1     2     1 1
     2    23    22 2
     3     1     3 1
     4    22    20 1
     5    22    24 1
     6    16    13 1
     7    16    15 1
     8     3    13 ar
     9     3     4 ar
    10    28    24 1
    11    28    27 1
    12    21    20 1
    13    21    17 2
    14    20    19 1
    15    24    25 1
    16     5     4 1
    17    13    12 ar
    18     4     6 ar
    19    17    15 1
    20    17    18 1
    21    15    14 2
    22    27    26 1
    23    25    26 1
    24    19    18 1
    25    12    14 1
    26    12    11 ar
    27     6    11 ar
    28     6     7 1
    29     9     7 1
    30     7     8 1
    31     7    10 1
    32     1    29 1
    33     2    30 1
    34     5    31 1
    35     5    32 1
    36     5    33 1
    37    11    34 1
    38    19    35 1
    39    19    36 1
    40    20    37 1
    41    25    38 1
    42    25    39 1
    43    26    40 1
    44    26    41 1
    45    27    42 1
    46    27    43 1
    47    28    44 1
    48    28    45 1
@<TRIPOS>SUBSTRUCTURE
     1 O95         1 TEMP              0 ****  ****    0 ROOT
