@<TRIPOS>MOLECULE
O96
   48    49     1     0     0
SMALL
bcc


@<TRIPOS>ATOM
      1 N1           0.0000     0.0000     0.0000 nz         1 O96       0.205600
      2 C4           1.3470     0.0000     0.0000 c          1 O96       0.209100
      3 C5           2.0940     0.0000     1.2910 c          1 O96       0.543100
      4 C6           3.6010    -0.0000     1.2910 c3         1 O96      -0.038300
      5 N8           4.0890     0.3580     2.6250 ns         1 O96      -0.217900
      6 C10          5.3110     0.9070     2.7700 c          1 O96       0.623700
      7 C11          5.8030     1.2680     4.1130 ca         1 O96      -0.235600
      8 C12          5.0030     1.0410     5.2370 ca         1 O96       0.008000
      9 C14          5.4660     1.3790     6.4880 ca         1 O96      -0.231000
     10 C16          6.7280     1.9460     6.6370 ca         1 O96       0.265100
     11 C17          7.5260     2.1740     5.5230 ca         1 O96      -0.268300
     12 C18          7.0730     1.8330     4.2660 ca         1 O96       0.092400
     13 Cl19         8.0720     2.1170     2.8750 cl         1 O96       0.102600
     14 C20          8.8920     2.7890     5.6900 c3         1 O96       0.662200
     15 F21          9.2140     3.5280     4.5460 f          1 O96      -0.202967
     16 F22          8.8900     3.6330     6.8060 f          1 O96      -0.202967
     17 F23          9.8400     1.7770     5.8730 f          1 O96      -0.202967
     18 O24          7.1790     2.2780     7.8730 os         1 O96      -0.283900
     19 C25          6.3060     2.0160     8.9740 c3         1 O96       0.165100
     20 C28          6.9720     2.4470    10.2560 ca         1 O96       0.342600
     21 N29          6.3400     2.2900    11.4020 nb         1 O96      -0.575000
     22 C30          6.8830     2.6520    12.5480 ca         1 O96       0.406200
     23 C32          8.1460     3.2140    12.5860 ca         1 O96      -0.210300
     24 C34          8.8410     3.3940    11.4000 ca         1 O96      -0.059000
     25 C36          8.2390     2.9960    10.2150 ca         1 O96      -0.199300
     26 O38          6.0090     1.1060     1.7930 o          1 O96      -0.630100
     27 C39          4.1100    -1.3940     0.9180 c3         1 O96      -0.029400
     28 C42          5.6350    -1.3640     0.7960 c3         1 O96      -0.008100
     29 O46          1.4890     0.0010     2.3380 o          1 O96      -0.489100
     30 O47          1.9540    -0.0010    -1.0510 o          1 O96      -0.341100
     31 HN1         -0.3340     0.8410     0.4270 hn         1 O96       0.252800
     32 HN1A        -0.3340    -0.0500    -0.9420 hn         1 O96       0.252800
     33 H6           3.9620     0.7210     0.5680 h1         1 O96       0.092700
     34 HN8          3.5070     0.2120     3.4260 hn         1 O96       0.201500
     35 H12          4.0210     0.6000     5.1240 ha         1 O96       0.097000
     36 H14          4.8470     1.2030     7.3590 ha         1 O96       0.140000
     37 H25          6.0890     0.9560     9.0190 h1         1 O96       0.019200
     38 H25A         5.3840     2.5690     8.8420 h1         1 O96       0.019200
     39 H30          6.3340     2.5080    13.4700 h4         1 O96      -0.015900
     40 H32          8.5860     3.5110    13.5300 ha         1 O96       0.118000
     41 H34          9.8330     3.8300    11.3990 ha         1 O96       0.115000
     42 H36          8.7530     3.1220     9.2700 ha         1 O96       0.135000
     43 H39          3.8220    -2.1010     1.6870 hc         1 O96       0.017200
     44 H39A         3.6780    -1.6950    -0.0290 hc         1 O96       0.017200
     45 H42          5.9710    -2.2420     0.2590 hc         1 O96       0.029033
     46 H42A         5.9370    -0.4740     0.2580 hc         1 O96       0.029033
     47 H42B         6.0760    -1.3550     1.7860 hc         1 O96       0.029033
     48 H13         -0.3340    -0.7760     0.5370 hn         1 O96       0.252800
@<TRIPOS>BOND
     1     1     2 1   
     2     1    31 1   
     3     1    32 1   
     4     1    48 1   
     5     2     3 1   
     6     2    30 2   
     7     3     4 1   
     8     3    29 2   
     9     4     5 1   
    10     4    27 1   
    11     4    33 1   
    12     5     6 1   
    13     5    34 1   
    14     6     7 1   
    15     6    26 2   
    16     7     8 ar  
    17     7    12 ar  
    18     8     9 ar  
    19     8    35 1   
    20     9    10 ar  
    21     9    36 1   
    22    10    11 ar  
    23    10    18 1   
    24    11    12 ar  
    25    11    14 1   
    26    12    13 1   
    27    14    15 1   
    28    14    16 1   
    29    14    17 1   
    30    18    19 1   
    31    19    20 1   
    32    19    37 1   
    33    19    38 1   
    34    20    21 ar  
    35    20    25 ar  
    36    21    22 ar  
    37    22    23 ar  
    38    22    39 1   
    39    23    24 ar  
    40    23    40 1   
    41    24    25 ar  
    42    24    41 1   
    43    25    42 1   
    44    27    28 1   
    45    27    43 1   
    46    27    44 1   
    47    28    45 1   
    48    28    46 1   
    49    28    47 1   
@<TRIPOS>SUBSTRUCTURE
     1 O96         1 TEMP              0 ****  ****    0 ROOT
