@<TRIPOS>MOLECULE
OA1
   22    23     1     0     0
SMALL
bcc


@<TRIPOS>ATOM
      1 BR1         0.2610   -0.8970   -0.1560 br        1 OA1     -0.079100
      2 C7          2.0230   -0.2700   -0.0760 ca        1 OA1     -0.040900
      3 C3          2.7030   -0.2500    1.1430 ca        1 OA1     -0.052000
      4 C11         2.6580    0.1830   -1.2380 ca        1 OA1     -0.080000
      5 C8          3.9690    0.6510   -1.1750 ca        1 OA1     -0.145000
      6 C4          4.6560    0.6620    0.0380 ca        1 OA1     -0.070000
      7 C1          4.0270    0.2070    1.2000 ca        1 OA1     -0.155600
      8 C2          4.7060    0.2240    2.5150 c         1 OA1      0.521200
      9 O6          4.0830    0.4670    3.5590 o         1 OA1     -0.528100
     10 C5          6.1280   -0.0680    2.5790 cc        1 OA1      0.020900
     11 O10         6.8310   -0.4690    1.4220 os        1 OA1     -0.391800
     12 C14         8.1480   -0.7150    1.8800 cc        1 OA1      0.740300
     13 N15         9.0280   -1.2210    0.9550 nh        1 OA1     -0.914500
     14 N13         8.2900   -0.4720    3.2130 nd        1 OA1     -0.732000
     15 C9          7.0290   -0.0790    3.6440 cd        1 OA1      0.359900
     16 H3          2.2120   -0.5840    2.0740 ha        1 OA1      0.166000
     17 H11         2.1270    0.1740   -2.2030 ha        1 OA1      0.149000
     18 H8          4.4630    1.0140   -2.0880 ha        1 OA1      0.140000
     19 H4          5.6940    1.0300    0.0810 ha        1 OA1      0.146000
     20 H9          6.8390    0.1750    4.6910 h4        1 OA1      0.067100
     21 H151        9.9930   -1.1470    1.1850 hn        1 OA1      0.439800
     22 H152        8.7750   -1.0960    0.0020 hn        1 OA1      0.439800
@<TRIPOS>BOND
     1    1    2 1
     2    2    3 ar
     3    2    4 ar
     4    3    7 ar
     5    3   16 1
     6    4    5 ar
     7    4   17 1
     8    5    6 ar
     9    5   18 1
    10    6    7 ar
    11    6   19 1
    12    7    8 1
    13    8    9 2
    14    8   10 1
    15   10   11 1
    16   10   15 2
    17   11   12 1
    18   12   13 1
    19   12   14 2
    20   13   21 1
    21   13   22 1
    22   14   15 1
    23   15   20 1
@<TRIPOS>SUBSTRUCTURE
     1 OA1         1 TEMP              0 ****  ****    0 ROOT
