@<TRIPOS>MOLECULE
OA2
   41    43     1     0     0
SMALL
bcc


@<TRIPOS>ATOM
      1 O2          0.7260   -1.4900    0.1770 o         1 OA2     -0.453100
      2 C1          1.5540   -0.6240    0.4490 c         1 OA2      0.501600
      3 C3          2.0390   -0.3040    1.7500 cc        1 OA2     -0.083100
      4 O4          2.9800    0.7470    1.9360 os        1 OA2     -0.431800
      5 C6          3.1880    0.7730    3.3390 cc        1 OA2      0.837300
      6 N8          4.0520    1.6910    3.8100 nh        1 OA2     -0.915500
      7 N7          2.4420   -0.1890    3.9960 nd        1 OA2     -0.721000
      8 C5          1.7410   -0.8410    3.0180 cd        1 OA2      0.476900
      9 N13         2.0940    0.2230   -0.6890 n4        1 OA2     -0.583200
     10 C10         1.1820    0.2110   -1.8850 c3        1 OA2      0.176600
     11 C9          1.2840    1.4820   -2.6590 ca        1 OA2     -0.169300
     12 C11         1.9860    1.5200   -3.8680 ca        1 OA2     -0.105000
     13 C14         2.0320    2.7010   -4.6090 ca        1 OA2     -0.118250
     14 C17         1.3830    3.8450   -4.1430 ca        1 OA2     -0.084000
     15 C15         0.6820    3.8090   -2.9360 ca        1 OA2     -0.118250
     16 C12         0.6310    2.6310   -2.1940 ca        1 OA2     -0.105000
     17 C16         3.5050   -0.1700   -1.0440 c3        1 OA2      0.176600
     18 C18         3.6810   -1.5950   -1.4440 ca        1 OA2     -0.169300
     19 C19         3.6900   -1.9490   -2.7990 ca        1 OA2     -0.105000
     20 C21         3.9200   -3.2720   -3.1720 ca        1 OA2     -0.118250
     21 C23         4.1430   -4.2460   -2.1980 ca        1 OA2     -0.084000
     22 C22         4.1410   -3.8950   -0.8470 ca        1 OA2     -0.118250
     23 C20         3.9130   -2.5730   -0.4690 ca        1 OA2     -0.105000
     24 H5          1.0530   -1.6660    3.2530 h4        1 OA2      0.089100
     25 H81N        4.5020    2.3170    3.1860 hn        1 OA2      0.483300
     26 H82N        4.2250    1.7420    4.7900 hn        1 OA2      0.483300
     27 H101        0.1240    0.0690   -1.5130 hx        1 OA2      0.108450
     28 H102        1.4520   -0.6850   -2.5150 hx        1 OA2      0.108450
     29 H161        4.1350    0.0530   -0.1320 hx        1 OA2      0.108450
     30 H162        3.8170    0.5120   -1.8890 hx        1 OA2      0.108450
     31 H11         2.4880    0.6170   -4.2480 ha        1 OA2      0.135000
     32 H12         0.0560    2.6000   -1.2560 ha        1 OA2      0.135000
     33 H14         2.5760    2.7270   -5.5660 ha        1 OA2      0.155500
     34 H17         1.4170    4.7760   -4.7320 ha        1 OA2      0.157500
     35 H15         0.1620    4.7100   -2.5740 ha        1 OA2      0.155500
     36 H19         3.5320   -1.1840   -3.5740 ha        1 OA2      0.135000
     37 H20         3.9180   -2.2990    0.5970 ha        1 OA2      0.135000
     38 H21         3.9280   -3.5470   -4.2390 ha        1 OA2      0.155500
     39 H23         4.3250   -5.2920   -2.4950 ha        1 OA2      0.157500
     40 H22         4.3230   -4.6620   -0.0770 ha        1 OA2      0.155500
     41 H131        2.1390    1.1920   -0.3410 hn        1 OA2      0.451800
@<TRIPOS>BOND
     1    1    2 2
     2    2    3 1
     3    2    9 1
     4    3    4 1
     5    3    8 2
     6    4    5 1
     7    5    6 1
     8    5    7 2
     9    6   25 1
    10    6   26 1
    11    7    8 1
    12    8   24 1
    13    9   10 1
    14    9   17 1
    15    9   41 1
    16   10   11 1
    17   10   27 1
    18   10   28 1
    19   11   12 ar
    20   11   16 ar
    21   12   13 ar
    22   12   31 1
    23   13   14 ar
    24   13   33 1
    25   14   15 ar
    26   14   34 1
    27   15   16 ar
    28   15   35 1
    29   16   32 1
    30   17   18 1
    31   17   29 1
    32   17   30 1
    33   18   19 ar
    34   18   23 ar
    35   19   20 ar
    36   19   36 1
    37   20   21 ar
    38   20   38 1
    39   21   22 ar
    40   21   39 1
    41   22   23 ar
    42   22   40 1
    43   23   37 1
@<TRIPOS>SUBSTRUCTURE
     1 OA2         1 TEMP              0 ****  ****    0 ROOT
