@<TRIPOS>MOLECULE
OA3
   27    28     1     0     0
SMALL
bcc


@<TRIPOS>ATOM
      1 O8           0.0000     0.0000     0.0000 o          1 OA3      -0.589100
      2 C3           1.2140     0.0000     0.0000 c          1 OA3       0.666700
      3 C7           1.9990     0.0000     1.2960 c3         1 OA3      -0.112400
      4 C11          3.1620     0.9870     1.1290 c3         1 OA3      -0.066000
      5 C38          3.9330     1.0960     2.4460 c3         1 OA3       0.001400
      6 C40          2.6120     2.3620     0.7440 c3         1 OA3       0.001400
      7 C5           4.0990     0.4870     0.0310 c3         1 OA3      -0.075700
      8 C2           3.3510     0.2350    -1.2470 ca         1 OA3       0.508600
      9 N6           3.9980     0.2310    -2.4020 nb         1 OA3      -0.699000
     10 C12          3.3640     0.0080    -3.5380 ca         1 OA3       0.704900
     11 N9           2.0690    -0.2220    -3.5960 nb         1 OA3      -0.714000
     12 C4           1.3320    -0.2370    -2.4860 ca         1 OA3       0.585200
     13 C1           1.9750    -0.0070    -1.2550 ca         1 OA3      -0.512200
     14 N10         -0.0230    -0.4800    -2.5420 nv         1 OA3      -0.505500
     15 H71C         1.3610     0.3190     2.1120 hc         1 OA3       0.043200
     16 H72C         2.3860    -0.9930     1.4910 hc         1 OA3       0.043200
     17 H381         4.3130     0.1210     2.7240 hc         1 OA3       0.010533
     18 H382         3.2710     1.4610     3.2220 hc         1 OA3       0.010533
     19 H383         4.7600     1.7850     2.3250 hc         1 OA3       0.010533
     20 H401         2.0620     2.7770     1.5800 hc         1 OA3       0.010533
     21 H402         1.9520     2.2610    -0.1090 hc         1 OA3       0.010533
     22 H403         3.4340     3.0210     0.4890 hc         1 OA3       0.010533
     23 H51C         4.8470     1.2490    -0.1550 hc         1 OA3       0.042200
     24 H52C         4.5450    -0.4440     0.3580 hc         1 OA3       0.042200
     25 H12          3.9330     0.0140    -4.4600 h5         1 OA3      -0.005900
     26 H101        -0.4710    -0.9860    -1.8050 hn         1 OA3       0.287800
     27 H102        -0.5650    -0.1160    -3.3010 hn         1 OA3       0.287800
@<TRIPOS>BOND
     1     1     2 2   
     2     2     3 1   
     3     2    13 1   
     4     3     4 1   
     5     3    15 1   
     6     3    16 1   
     7     4     5 1   
     8     4     6 1   
     9     4     7 1   
    10     5    17 1   
    11     5    18 1   
    12     5    19 1   
    13     6    20 1   
    14     6    21 1   
    15     6    22 1   
    16     7     8 1   
    17     7    23 1   
    18     7    24 1   
    19     8     9 ar  
    20     8    13 ar  
    21     9    10 ar  
    22    10    11 ar  
    23    10    25 1   
    24    11    12 ar  
    25    12    13 ar  
    26    12    14 1   
    27    14    26 1   
    28    14    27 1   
@<TRIPOS>SUBSTRUCTURE
     1 OA3         1 TEMP              0 ****  ****    0 ROOT
