@<TRIPOS>MOLECULE
molecule
   33    35     1     0     0
SMALL
bcc


@<TRIPOS>ATOM
      1 C1           0.0000     0.0000     0.0000 ca         1 OA4       0.461600
      2 C2           1.4170     0.0000     0.0000 ca         1 OA4      -0.298600
      3 C3           2.0900     0.0000     1.2480 ca         1 OA4       0.747200
      4 N4           1.3610    -0.0020     2.3560 nb         1 OA4      -0.781000
      5 C5           0.0310    -0.0030     2.3100 ca         1 OA4       0.942900
      6 N6          -0.6440    -0.0020     1.1770 nb         1 OA4      -0.746000
      7 N7           3.4660    -0.0000     1.3090 nv         1 OA4      -1.080500
      8 C8          -0.6930     0.0060    -1.2190 ca         1 OA4      -0.188300
      9 C9          -0.0020     0.0130    -2.3920 ca         1 OA4      -0.084000
     10 C12          1.4000     0.0140    -2.4010 cp         1 OA4      -0.061000
     11 C13          2.1120     0.0020    -1.2120 ca         1 OA4      -0.019300
     12 N14         -0.6720    -0.0040     3.5000 nv         1 OA4      -1.061500
     13 C26          3.7170     1.0360    -5.1800 ca         1 OA4      -0.129500
     14 C27          3.4860     0.0340    -6.1060 ca         1 OA4      -0.126000
     15 C10          3.6180     0.0040    -1.2260 c3         1 OA4      -0.047800
     16 C22          2.5790    -0.9730    -5.8320 ca         1 OA4      -0.129500
     17 C23          1.9000    -0.9850    -4.6310 ca         1 OA4      -0.116000
     18 CAP          2.1270     0.0210    -3.6940 cp         1 OA4      -0.039000
     19 C25          3.0430     1.0350    -3.9760 ca         1 OA4      -0.116000
     20 H8          -1.7760     0.0050    -1.2280 ha         1 OA4       0.153000
     21 H71N         3.9620    -0.8650     1.3900 hn         1 OA4       0.443300
     22 H72N         3.9650     0.8670     1.3420 hn         1 OA4       0.443300
     23 H141        -0.9260    -0.8710     3.9310 hn         1 OA4       0.443800
     24 H142        -0.9320     0.8630     3.9280 hn         1 OA4       0.443800
     25 H9          -0.5430     0.0230    -3.3300 ha         1 OA4       0.139000
     26 H101         3.9700    -0.1370    -2.2400 hc         1 OA4       0.049033
     27 H102         3.9860    -0.8000    -0.6000 hc         1 OA4       0.049033
     28 H103         3.9810     0.9520    -0.8460 hc         1 OA4       0.049033
     29 H27          4.0170     0.0400    -7.0500 ha         1 OA4       0.130000
     30 H25          3.2240     1.8190    -3.2520 ha         1 OA4       0.135500
     31 H22          2.4020    -1.7550    -6.5610 ha         1 OA4       0.131000
     32 H23          1.1890    -1.7740    -4.4170 ha         1 OA4       0.135500
     33 H26          4.4280     1.8220    -5.4000 ha         1 OA4       0.131000
@<TRIPOS>BOND
     1     1     2 ar
     2     1     6 ar
     3     1     8 ar
     4     2     3 ar
     5     2    11 ar
     6     3     4 ar
     7     3     7 1
     8     4     5 ar
     9     5     6 ar
    10     5    12 1
    11     8     9 ar
    12     9    10 ar
    13    10    11 ar
    14    10    18 1
    15    11    15 1
    16    13    14 ar
    17    13    19 ar
    18    14    16 ar
    19    16    17 ar
    20    17    18 ar
    21    18    19 ar
    22     8    20 1
    23     7    21 1
    24     7    22 1
    25    12    23 1
    26    12    24 1
    27     9    25 1
    28    15    26 1
    29    15    27 1
    30    15    28 1
    31    13    33 1
    32    14    29 1
    33    19    30 1
    34    16    31 1
    35    17    32 1
@<TRIPOS>SUBSTRUCTURE
     1 OA4         1 TEMP              0 ****  ****    0 ROOT
