@<TRIPOS>MOLECULE
OA4
   33    35     1     0     0
SMALL
bcc


@<TRIPOS>ATOM
      1 C1           0.0000     0.0000     0.0000 ca         1 OA4       0.410600
      2 C2           1.4170     0.0000     0.0000 ca         1 OA4      -0.278600
      3 C3           2.0900     0.0000     1.2480 ca         1 OA4       0.561200
      4 N4           1.3610    -0.0020     2.3560 nb         1 OA4      -0.651000
      5 C5           0.0310    -0.0030     2.3100 ca         1 OA4       0.717900
      6 N6          -0.6440    -0.0020     1.1770 nb         1 OA4      -0.621000
      7 N7           3.4660    -0.0000     1.3090 nv         1 OA4      -0.664500
      8 C8          -0.6930     0.0060    -1.2190 ca         1 OA4      -0.163300
      9 C9          -0.0020     0.0130    -2.3920 ca         1 OA4      -0.060000
     10 C12          1.4000     0.0140    -2.4010 cp         1 OA4      -0.050000
     11 C13          2.1120     0.0020    -1.2120 ca         1 OA4      -0.023300
     12 N14         -0.6720    -0.0040     3.5000 nv         1 OA4      -0.642500
     13 C26          3.7170     1.0360    -5.1800 ca         1 OA4      -0.101000
     14 C27          3.4860     0.0340    -6.1060 ca         1 OA4      -0.100000
     15 C10          3.6180     0.0040    -1.2260 c3         1 OA4       0.021200
     16 C22          2.5790    -0.9730    -5.8320 ca         1 OA4      -0.101000
     17 C23          1.9000    -0.9850    -4.6310 ca         1 OA4      -0.093000
     18 CAP          2.1270     0.0210    -3.6940 cp         1 OA4      -0.033000
     19 C25          3.0430     1.0350    -3.9760 ca         1 OA4      -0.093000
     20 H8          -1.7760     0.0050    -1.2280 ha         1 OA4       0.121000
     21 H71N         3.9620    -0.8650     1.3900 hn         1 OA4       0.287300
     22 H72N         3.9650     0.8670     1.3420 hn         1 OA4       0.287300
     23 H141        -0.9260    -0.8710     3.9310 hn         1 OA4       0.278800
     24 H142        -0.9320     0.8630     3.9280 hn         1 OA4       0.278800
     25 H9          -0.5430     0.0230    -3.3300 ha         1 OA4       0.110000
     26 H101         3.9700    -0.1370    -2.2400 hc         1 OA4       0.023700
     27 H102         3.9860    -0.8000    -0.6000 hc         1 OA4       0.023700
     28 H103         3.9810     0.9520    -0.8460 hc         1 OA4       0.023700
     29 H27          4.0170     0.0400    -7.0500 ha         1 OA4       0.102000
     30 H25          3.2240     1.8190    -3.2520 ha         1 OA4       0.110000
     31 H22          2.4020    -1.7550    -6.5610 ha         1 OA4       0.103500
     32 H23          1.1890    -1.7740    -4.4170 ha         1 OA4       0.110000
     33 H26          4.4280     1.8220    -5.4000 ha         1 OA4       0.103500
@<TRIPOS>BOND
     1     1     2 ar  
     2     1     6 ar  
     3     1     8 ar  
     4     2     3 ar  
     5     2    11 ar  
     6     3     4 ar  
     7     3     7 1   
     8     4     5 ar  
     9     5     6 ar  
    10     5    12 1   
    11     7    21 1   
    12     7    22 1   
    13     8     9 ar  
    14     8    20 1   
    15     9    10 ar  
    16     9    25 1   
    17    10    11 ar  
    18    10    18 1   
    19    11    15 1   
    20    12    23 1   
    21    12    24 1   
    22    13    14 ar  
    23    13    19 ar  
    24    13    33 1   
    25    14    16 ar  
    26    14    29 1   
    27    15    26 1   
    28    15    27 1   
    29    15    28 1   
    30    16    17 ar  
    31    16    31 1   
    32    17    18 ar  
    33    17    32 1   
    34    18    19 ar  
    35    19    30 1   
@<TRIPOS>SUBSTRUCTURE
     1 OA4         1 TEMP              0 ****  ****    0 ROOT
