@<TRIPOS>MOLECULE
OA5
   31    32     1     0     0
SMALL
bcc


@<TRIPOS>ATOM
      1 N10          0.0000     0.0000     0.0000 nv         1 OA5      -0.635000
      2 C6           1.3810     0.0000     0.0000 ca         1 OA5       0.788400
      3 N8           2.0460     0.0000     1.1500 nb         1 OA5      -0.721000
      4 C5           3.3750     0.0010     1.1490 ca         1 OA5       0.788400
      5 N9           4.0670    -0.0010     2.3430 nv         1 OA5      -0.635000
      6 N2           4.0380     0.0020    -0.0040 nb         1 OA5      -0.730500
      7 N3           2.0460    -0.0040    -1.1520 nb         1 OA5      -0.730500
      8 C1           3.3720     0.0020    -1.1520 ca         1 OA5       0.876300
      9 O4           4.0480     0.0030    -2.3250 os         1 OA5      -0.395100
     10 C7           3.2690     0.0040    -3.5230 c3         1 OA5       0.212400
     11 C11          4.2000     0.0050    -4.7370 c3         1 OA5       0.195400
     12 O12          4.9420    -1.2160    -4.7690 os         1 OA5      -0.298900
     13 C13          5.8220    -1.3750    -5.7930 ca         1 OA5       0.152100
     14 C15          6.5770    -2.5360    -5.8860 ca         1 OA5      -0.176000
     15 C17          7.4700    -2.6960    -6.9270 ca         1 OA5      -0.057500
     16 C18          7.6140    -1.7000    -7.8760 ca         1 OA5      -0.145000
     17 C16          6.8630    -0.5430    -7.7850 ca         1 OA5      -0.057500
     18 C14          5.9640    -0.3810    -6.7500 ca         1 OA5      -0.176000
     19 H101        -0.5000     0.8670     0.0080 hn         1 OA5       0.285300
     20 H102        -0.5000    -0.8670     0.0130 hn         1 OA5       0.285300
     21 H91N         4.3180    -0.8680     2.7750 hn         1 OA5       0.285300
     22 H92N         4.3170     0.8650     2.7770 hn         1 OA5       0.285300
     23 H71C         2.6430     0.8880    -3.5470 h1         1 OA5       0.020700
     24 H72C         2.6450    -0.8810    -3.5490 h1         1 OA5       0.020700
     25 H111         3.6130     0.0950    -5.6430 h1         1 OA5       0.012200
     26 H112         4.8850     0.8420    -4.6660 h1         1 OA5       0.012200
     27 H15          6.4650    -3.3170    -5.1430 ha         1 OA5       0.117000
     28 H14          5.3770     0.5260    -6.6790 ha         1 OA5       0.117000
     29 H17          8.0600    -3.6020    -7.0000 ha         1 OA5       0.100500
     30 H18          8.3170    -1.8270    -8.6910 ha         1 OA5       0.105000
     31 H16          6.9750     0.2350    -8.5310 ha         1 OA5       0.100500
@<TRIPOS>BOND
     1     1     2 1   
     2     1    19 1   
     3     1    20 1   
     4     2     3 ar  
     5     2     7 ar  
     6     3     4 ar  
     7     4     5 1   
     8     4     6 ar  
     9     5    21 1   
    10     5    22 1   
    11     6     8 ar  
    12     7     8 ar  
    13     8     9 1   
    14     9    10 1   
    15    10    11 1   
    16    10    23 1   
    17    10    24 1   
    18    11    12 1   
    19    11    25 1   
    20    11    26 1   
    21    12    13 1   
    22    13    14 ar  
    23    13    18 ar  
    24    14    15 ar  
    25    14    27 1   
    26    15    16 ar  
    27    15    29 1   
    28    16    17 ar  
    29    16    30 1   
    30    17    18 ar  
    31    17    31 1   
    32    18    28 1   
@<TRIPOS>SUBSTRUCTURE
     1 OA5         1 TEMP              0 ****  ****    0 ROOT
