@<TRIPOS>MOLECULE
molecule
   11    10     1     0     0
SMALL
bcc


@<TRIPOS>ATOM
      1 O1           0.0000     0.0000     0.0000 o          1 OAA      -0.863800
      2 O2           1.8290    -0.0000    -1.0560 o          1 OAA      -0.863800
      3 O4           2.6830    -0.0000     4.0780 o          1 OAA      -0.862800
      4 O5           0.6160    -0.0000     4.8790 o          1 OAA      -0.862800
      5 O3          -0.1940     0.0000     2.2300 o          1 OAA      -0.496100
      6 C1           1.2190     0.0000     0.0000 c          1 OAA       0.914600
      7 C2           1.9730     0.0000     1.3060 c3         1 OAA      -0.303400
      8 C3           0.9940     0.0000     2.4510 c          1 OAA       0.460100
      9 C4           1.4910    -0.0000     3.8560 c          1 OAA       0.798600
     10 H21          2.5950     0.8840     1.3630 hc         1 OAA       0.039700
     11 H22          2.5950    -0.8840     1.3630 hc         1 OAA       0.039700
@<TRIPOS>BOND
     1     1     6 1
     2     2     6 1
     3     3     9 1
     4     4     9 1
     5     5     8 2
     6     6     7 1
     7     7     8 1
     8     7    10 1
     9     7    11 1
    10     8     9 1
@<TRIPOS>SUBSTRUCTURE
     1 OAA         1 TEMP              0 ****  ****    0 ROOT
