@<TRIPOS>MOLECULE
OAA
   11    10     1     0     0
SMALL
bcc


@<TRIPOS>ATOM
      1 O1          0.3950    0.8430   -0.5800 o         1 OAA     -0.876300
      2 O2          1.7890   -0.8750   -0.7590 o         1 OAA     -0.876300
      3 O4          2.4980   -0.8310    4.3250 o         1 OAA     -0.856300
      4 O5          1.0970    0.8870    4.5050 o         1 OAA     -0.856300
      5 O3          0.0410   -1.1850    2.3360 o         1 OAA     -0.601100
      6 C1          1.2460    0.0470   -0.0760 c         1 OAA      0.920600
      7 C2          1.7180    0.2800    1.3630 c3        1 OAA     -0.284400
      8 C3          1.0020   -0.4180    2.4770 c         1 OAA      0.504100
      9 C4          1.5690   -0.1010    3.8690 c         1 OAA      0.830600
     10 H21         2.7950   -0.0280    1.4310 hc        1 OAA      0.048700
     11 H22         1.6520    1.3800    1.5780 hc        1 OAA      0.048700
@<TRIPOS>BOND
     1    1    6 1   
     2    2    6 1   
     3    3    9 1   
     4    4    9 1   
     5    5    8 2   
     6    6    7 1   
     7    7    8 1   
     8    7   10 1   
     9    7   11 1   
    10    8    9 1   
@<TRIPOS>SUBSTRUCTURE
     1 OAA         1 TEMP              0 ****  ****    0 ROOT
