@<TRIPOS>MOLECULE
molecule
   24    24     1     0     0
SMALL
bcc


@<TRIPOS>ATOM
      1 O            0.0000     0.0000     0.0000 o          1 OAC      -0.853300
      2 C            1.2080     0.0000     0.0000 c          1 OAC       0.896600
      3 CA           1.9620     0.0000     1.3050 c3         1 OAC      -0.164700
      4 CB1          0.9690    -0.0000     2.4670 c3         1 OAC      -0.018100
      5 CB2          2.8410    -1.2480     1.3850 c3         1 OAC      -0.072100
      6 CG           1.7230    -0.0000     3.7720 ca         1 OAC      -0.064300
      7 CD1          2.0690     1.1960     4.3710 ca         1 OAC      -0.115000
      8 CE1          2.7590     1.1960     5.5680 ca         1 OAC      -0.153000
      9 CZ           3.1070    -0.0010     6.1690 ca         1 OAC      -0.137000
     10 CE2          2.7640    -1.1980     5.5740 ca         1 OAC      -0.189000
     11 CD2          2.0650    -1.2000     4.3750 ca         1 OAC       0.109100
     12 OH           1.7260    -2.3790     3.7880 oh         1 OAC      -0.496100
     13 OXT          1.8790    -0.0000    -1.1630 o          1 OAC      -0.853300
     14 HA           2.5840     0.8850     1.3620 hc         1 OAC       0.036700
     15 HB11         0.3460     0.8840     2.4100 hc         1 OAC       0.058200
     16 HB12         0.3470    -0.8850     2.4100 hc         1 OAC       0.058200
     17 HB21         3.5560    -1.1350     2.1920 hc         1 OAC       0.026367
     18 HB22         3.3710    -1.3780     0.4490 hc         1 OAC       0.026367
     19 HB23         2.2200    -2.1160     1.5720 hc         1 OAC       0.026367
     20 HD1          1.7970     2.1340     3.9020 ha         1 OAC       0.136000
     21 HE1          3.0300     2.1350     6.0360 ha         1 OAC       0.114000
     22 HZ           3.6500     0.0020     7.1060 ha         1 OAC       0.112000
     23 HE2          3.0340    -2.1350     6.0460 ha         1 OAC       0.118000
     24 HH           1.2150    -2.8940     4.3910 ho         1 OAC       0.401000
@<TRIPOS>BOND
     1     1     2 1
     2     2     3 1
     3     2    13 1
     4     3     4 1
     5     3     5 1
     6     3    14 1
     7     4     6 1
     8     4    15 1
     9     4    16 1
    10     5    17 1
    11     5    18 1
    12     5    19 1
    13     6     7 ar
    14     6    11 ar
    15     7     8 ar
    16     7    20 1
    17     8     9 ar
    18     8    21 1
    19     9    10 ar
    20     9    22 1
    21    10    11 ar
    22    10    23 1
    23    11    12 1
    24    12    24 1
@<TRIPOS>SUBSTRUCTURE
     1 OAC         1 TEMP              0 ****  ****    0 ROOT
