@<TRIPOS>MOLECULE
OAC
   24    24     1     0     0
SMALL
bcc


@<TRIPOS>ATOM
      1 O           0.0770    1.0060    0.3710 o         1 OAC     -0.845300
      2 C           1.2390    0.5650    0.1400 c         1 OAC      0.911600
      3 CA          2.0400   -0.0790    1.3040 c3        1 OAC     -0.181700
      4 CB1         1.1310   -0.4780    2.4580 c3        1 OAC     -0.043100
      5 CB2         2.8460   -1.2530    0.8020 c3        1 OAC     -0.064100
      6 CG          1.7440   -0.2560    3.7950 ca        1 OAC     -0.048300
      7 CD1         2.1190    1.0320    4.1930 ca        1 OAC     -0.106000
      8 CE1         2.6840    1.2710    5.4460 ca        1 OAC     -0.167000
      9 CZ          2.8850    0.2180    6.3350 ca        1 OAC     -0.126000
     10 CE2         2.5150   -1.0760    5.9750 ca        1 OAC     -0.222000
     11 CD2         1.9460   -1.3070    4.7150 ca        1 OAC      0.102100
     12 OH          1.5490   -2.5730    4.3320 oh        1 OAC     -0.492100
     13 OXT         1.8110    0.6530   -0.9840 o         1 OAC     -0.845300
     14 HA          2.7500    0.7220    1.6510 hc        1 OAC      0.029700
     15 HB11        0.8320   -1.5540    2.3480 hc        1 OAC      0.073200
     16 HB12        0.1890    0.1410    2.3880 hc        1 OAC      0.073200
     17 HB21        3.4470   -0.9360   -0.0850 hc        1 OAC      0.018367
     18 HB22        2.1710   -2.0840    0.4860 hc        1 OAC      0.018367
     19 HB23        3.5320   -1.6370    1.5950 hc        1 OAC      0.018367
     20 HD1         1.9590    1.8660    3.4890 ha        1 OAC      0.154000
     21 HE1         2.9720    2.2930    5.7290 ha        1 OAC      0.118000
     22 HZ          3.3330    0.4030    7.3210 ha        1 OAC      0.112000
     23 HE2         2.6690   -1.9110    6.6710 ha        1 OAC      0.113000
     24 HH          1.8250   -3.1860    5.0280 ho        1 OAC      0.399000
@<TRIPOS>BOND
     1    1    2 1   
     2    2    3 1   
     3    2   13 1   
     4    3    4 1   
     5    3    5 1   
     6    3   14 1   
     7    4    6 1   
     8    4   15 1   
     9    4   16 1   
    10    5   17 1   
    11    5   18 1   
    12    5   19 1   
    13    6    7 ar  
    14    6   11 ar  
    15    7    8 ar  
    16    7   20 1   
    17    8    9 ar  
    18    8   21 1   
    19    9   10 ar  
    20    9   22 1   
    21   10   11 ar  
    22   10   23 1   
    23   11   12 1   
    24   12   24 1   
@<TRIPOS>SUBSTRUCTURE
     1 OAC         1 TEMP              0 ****  ****    0 ROOT
