@<TRIPOS>MOLECULE
molecule
   45    46     1     0     0
SMALL
bcc


@<TRIPOS>ATOM
      1 O            0.0000     0.0000     0.0000 o          1 OAE      -0.807800
      2 C1          -1.4970    -3.5390    -1.9720 c3         1 OAE      -0.074600
      3 N1           3.5360     0.0020    -1.0370 ns         1 OAE      -0.455900
      4 O1           0.2570    -5.7630    -1.0340 o          1 OAE      -0.827800
      5 S1          -0.0580    -1.2420    -2.5610 ss         1 OAE      -0.297200
      6 C2           0.5620    -4.4850    -0.7560 c          1 OAE       0.896600
      7 N2           6.0340     2.4200     0.1300 nz         1 OAE      -0.791600
      8 O2           0.4630    -4.0730     0.3750 o          1 OAE      -0.827800
      9 C3           4.1790     1.1650    -0.8120 c          1 OAE       0.624100
     10 N3           1.7990    -2.4710    -1.2610 n7         1 OAE      -0.739200
     11 O3           3.5660     2.2110    -0.8330 o          1 OAE      -0.630100
     12 C4           5.6610     1.1660    -0.5360 c3         1 OAE       0.071800
     13 O4           1.9460     0.0000     1.0470 o          1 OAE      -0.807800
     14 C5           6.4140     1.0430    -1.8360 ca         1 OAE      -0.142300
     15 C6          -0.2030    -3.0710    -2.6420 c3         1 OAE       0.076100
     16 C7           6.9220    -0.1820    -2.2280 ca         1 OAE      -0.110000
     17 C8           7.6120    -0.2940    -3.4200 ca         1 OAE      -0.112000
     18 C9           7.7960     0.8180    -4.2190 ca         1 OAE      -0.104000
     19 C10          7.2880     2.0430    -3.8280 ca         1 OAE      -0.112000
     20 C11          6.5930     2.1540    -2.6400 ca         1 OAE      -0.110000
     21 C12          1.0260    -3.5650    -1.8560 c3         1 OAE       0.058500
     22 C13          1.7270    -1.2470    -2.1080 c3         1 OAE       0.256600
     23 C14          2.0960     0.0010    -1.3040 c3         1 OAE       0.010700
     24 C15          1.3420     0.0000     0.0000 c          1 OAE       0.910600
     25 C16         -0.1470    -3.5520    -4.0940 c3         1 OAE      -0.074600
     26 H1          -2.3450    -3.0810    -2.4650 hc         1 OAE       0.040033
     27 H1A         -1.4870    -3.2510    -0.9280 hc         1 OAE       0.040033
     28 H1B         -1.5740    -4.6170    -2.0480 hc         1 OAE       0.040033
     29 HN1          4.0360    -0.8640    -0.9900 hn         1 OAE       0.309500
     30 HN3          2.7540    -2.7520    -1.1620 hn         1 OAE       0.315800
     31 H4           5.9090     0.3290     0.1050 hx         1 OAE       0.119700
     32 H7           6.7780    -1.0540    -1.6010 ha         1 OAE       0.136000
     33 H8           8.0100    -1.2530    -3.7270 ha         1 OAE       0.145000
     34 H9           8.3400     0.7300    -5.1520 ha         1 OAE       0.142000
     35 H10          7.4300     2.9140    -4.4560 ha         1 OAE       0.145000
     36 H11          6.1950     3.1140    -2.3330 ha         1 OAE       0.136000
     37 H12          1.6700    -4.1170    -2.5300 h1         1 OAE       0.003700
     38 H13          2.3490    -1.3500    -2.9890 h2         1 OAE      -0.008300
     39 H14          1.8340     0.8860    -1.8720 h1         1 OAE       0.075700
     40 H16         -0.9750    -3.1270    -4.6480 hc         1 OAE       0.040033
     41 H16A         0.7870    -3.2370    -4.5430 hc         1 OAE       0.040033
     42 H16B        -0.2120    -4.6330    -4.1200 hc         1 OAE       0.040033
     43 HN2A         5.6360     3.1930    -0.3660 hn         1 OAE       0.453133
     44 H22          5.6910     2.4140     1.0700 hn         1 OAE       0.453133
     45 HN2          7.0310     2.5080     0.1400 hn         1 OAE       0.453133
@<TRIPOS>BOND
     1    24     1 1
     2    15     2 1
     3     2    26 1
     4     2    27 1
     5     2    28 1
     6     9     3 1
     7     3    23 1
     8     3    29 1
     9     6     4 1
    10     5    15 1
    11     5    22 1
    12    21     6 1
    13     6     8 1
    14     7    12 1
    15     7    45 1
    16     7    43 1
    17    12     9 1
    18     9    11 2
    19    22    10 1
    20    21    10 1
    21    10    30 1
    22    14    12 1
    23    12    31 1
    24    13    24 1
    25    16    14 ar
    26    20    14 ar
    27    25    15 1
    28    15    21 1
    29    17    16 ar
    30    16    32 1
    31    18    17 ar
    32    17    33 1
    33    18    19 ar
    34    18    34 1
    35    19    20 ar
    36    19    35 1
    37    20    36 1
    38    21    37 1
    39    23    22 1
    40    22    38 1
    41    23    24 1
    42    23    39 1
    43    25    40 1
    44    25    41 1
    45    25    42 1
    46    44     7 1
@<TRIPOS>SUBSTRUCTURE
     1 OAE         1 TEMP              0 ****  ****    0 ROOT
