@<TRIPOS>MOLECULE
OAE
   45    46     1     0     0
SMALL
bcc


@<TRIPOS>ATOM
      1 O            0.0000     0.0000     0.0000 o          1 OAE      -0.854300
      2 C1          -1.4970    -3.5390    -1.9720 c3         1 OAE      -0.002100
      3 N1           3.5360     0.0020    -1.0370 ns         1 OAE       0.017100
      4 O1           0.2570    -5.7630    -1.0340 o          1 OAE      -0.874800
      5 S1          -0.0580    -1.2420    -2.5610 ss         1 OAE      -0.375200
      6 C2           0.5620    -4.4850    -0.7560 c          1 OAE       0.977600
      7 N2           6.0340     2.4200     0.1300 nz         1 OAE       0.086400
      8 O2           0.4630    -4.0730     0.3750 o          1 OAE      -0.874800
      9 C3           4.1790     1.1650    -0.8120 c          1 OAE       0.509100
     10 N3           1.7990    -2.4710    -1.2610 n7         1 OAE      -0.493200
     11 O3           3.5660     2.2110    -0.8330 o          1 OAE      -0.678100
     12 C4           5.6610     1.1660    -0.5360 c3         1 OAE      -0.088200
     13 O4           1.9460     0.0000     1.0470 o          1 OAE      -0.854300
     14 C5           6.4140     1.0430    -1.8360 ca         1 OAE      -0.152300
     15 C6          -0.2030    -3.0710    -2.6420 c3         1 OAE       0.113100
     16 C7           6.9220    -0.1820    -2.2280 ca         1 OAE      -0.082500
     17 C8           7.6120    -0.2940    -3.4200 ca         1 OAE      -0.079500
     18 C9           7.7960     0.8180    -4.2190 ca         1 OAE      -0.073000
     19 C10          7.2880     2.0430    -3.8280 ca         1 OAE      -0.079500
     20 C11          6.5930     2.1540    -2.6400 ca         1 OAE      -0.082500
     21 C12          1.0260    -3.5650    -1.8560 c3         1 OAE       0.000500
     22 C13          1.7270    -1.2470    -2.1080 c3         1 OAE       0.238600
     23 C14          2.0960     0.0010    -1.3040 c3         1 OAE      -0.112300
     24 C15          1.3420     0.0000     0.0000 c          1 OAE       0.989600
     25 C16         -0.1470    -3.5520    -4.0940 c3         1 OAE      -0.002100
     26 H1          -2.3450    -3.0810    -2.4650 hc         1 OAE       0.015533
     27 H1A         -1.4870    -3.2510    -0.9280 hc         1 OAE       0.015533
     28 H1B         -1.5740    -4.6170    -2.0480 hc         1 OAE       0.015533
     29 HN1          4.0360    -0.8640    -0.9900 hn         1 OAE       0.155500
     30 HN3          2.7540    -2.7520    -1.1620 hn         1 OAE       0.214800
     31 H4           5.9090     0.3290     0.1050 hx         1 OAE       0.092700
     32 H7           6.7780    -1.0540    -1.6010 ha         1 OAE       0.111000
     33 H8           8.0100    -1.2530    -3.7270 ha         1 OAE       0.114500
     34 H9           8.3400     0.7300    -5.1520 ha         1 OAE       0.111000
     35 H10          7.4300     2.9140    -4.4560 ha         1 OAE       0.114500
     36 H11          6.1950     3.1140    -2.3330 ha         1 OAE       0.111000
     37 H12          1.6700    -4.1170    -2.5300 h1         1 OAE      -0.003300
     38 H13          2.3490    -1.3500    -2.9890 h2         1 OAE      -0.015300
     39 H14          1.8340     0.8860    -1.8720 h1         1 OAE       0.062700
     40 H16         -0.9750    -3.1270    -4.6480 hc         1 OAE       0.015533
     41 H16A         0.7870    -3.2370    -4.5430 hc         1 OAE       0.015533
     42 H16B        -0.2120    -4.6330    -4.1200 hc         1 OAE       0.015533
     43 HN2A         5.6360     3.1930    -0.3660 hn         1 OAE       0.222467
     44 H22          5.6910     2.4140     1.0700 hn         1 OAE       0.222467
     45 HN2          7.0310     2.5080     0.1400 hn         1 OAE       0.222467
@<TRIPOS>BOND
     1     1    24 1   
     2     2    15 1   
     3     2    26 1   
     4     2    27 1   
     5     2    28 1   
     6     3     9 1   
     7     3    23 1   
     8     3    29 1   
     9     4     6 1   
    10     5    15 1   
    11     5    22 1   
    12     6     8 1   
    13     6    21 1   
    14     7    12 1   
    15     7    43 1   
    16     7    44 1   
    17     7    45 1   
    18     9    11 2   
    19     9    12 1   
    20    10    21 1   
    21    10    22 1   
    22    10    30 1   
    23    12    14 1   
    24    12    31 1   
    25    13    24 1   
    26    14    16 ar  
    27    14    20 ar  
    28    15    21 1   
    29    15    25 1   
    30    16    17 ar  
    31    16    32 1   
    32    17    18 ar  
    33    17    33 1   
    34    18    19 ar  
    35    18    34 1   
    36    19    20 ar  
    37    19    35 1   
    38    20    36 1   
    39    21    37 1   
    40    22    23 1   
    41    22    38 1   
    42    23    24 1   
    43    23    39 1   
    44    25    40 1   
    45    25    41 1   
    46    25    42 1   
@<TRIPOS>SUBSTRUCTURE
     1 OAE         1 TEMP              0 ****  ****    0 ROOT
