@<TRIPOS>MOLECULE
molecule
   14    13     1     0     0
SMALL
bcc


@<TRIPOS>ATOM
      1 O2           0.0000     0.0000     0.0000 o          1 OAF      -0.845800
      2 C1           1.3430     0.0000     0.0000 c          1 OAF       0.846600
      3 O1           1.9470     0.0000     1.0460 o          1 OAF      -0.845800
      4 C2           2.0960    -0.0010    -1.3050 c3         1 OAF       0.219600
      5 O4           1.8410     1.2200    -2.0030 oh         1 OAF      -0.593300
      6 O3           3.4960    -0.1190    -1.0470 oh         1 OAF      -0.593300
      7 C3           1.6340    -1.1830    -2.1600 c3         1 OAF       0.339600
      8 F1           2.1800    -2.3680    -1.6520 f          1 OAF      -0.240300
      9 F2           0.2380    -1.2630    -2.1300 f          1 OAF      -0.240300
     10 C4           2.0960    -0.9860    -3.5810 c          1 OAF       0.881600
     11 O5           1.4320    -1.5730    -4.5890 o          1 OAF      -0.837800
     12 O6           3.0630    -0.3010    -3.8120 o          1 OAF      -0.837800
     13 HO4          1.9870     1.9500    -1.4240 ho         1 OAF       0.374000
     14 HO3          3.8320     0.7100    -0.7490 ho         1 OAF       0.374000
@<TRIPOS>BOND
     1     2     1 1
     2     4     2 1
     3     3     2 1
     4     5     4 1
     5     6     4 1
     6     4     7 1
     7     5    13 1
     8     6    14 1
     9    10     7 1
    10     9     7 1
    11     7     8 1
    12    12    10 1
    13    10    11 1
@<TRIPOS>SUBSTRUCTURE
     1 OAF         1 TEMP              0 ****  ****    0 ROOT
