@<TRIPOS>MOLECULE
OAF
   14    13     1     0     0
SMALL
bcc


@<TRIPOS>ATOM
      1 O2          0.0750    0.5740   -0.0070 o         1 OAF     -0.845800
      2 C1          1.2860    0.2350    0.0460 c         1 OAF      0.896600
      3 O1          1.9090   -0.0220    1.1220 o         1 OAF     -0.845800
      4 C2          2.1310    0.1840   -1.2690 c3        1 OAF      0.210600
      5 O4          1.8820    1.3200   -2.0620 oh        1 OAF     -0.615300
      6 O3          3.5090    0.3520   -0.9940 oh        1 OAF     -0.615300
      7 C3          1.9710   -1.1650   -2.0930 c3        1 OAF      0.238600
      8 F1          2.9520   -2.0610   -1.7050 f         1 OAF     -0.270300
      9 F2          0.8330   -1.8560   -1.7160 f         1 OAF     -0.270300
     10 C4          1.9720   -0.9470   -3.6670 c         1 OAF      0.918600
     11 O5          1.0650   -0.2140   -4.1480 o         1 OAF     -0.829800
     12 O6          2.8480   -1.5460   -4.3430 o         1 OAF     -0.829800
     13 HO4         1.0500    1.1380   -2.5260 ho        1 OAF      0.430000
     14 HO3         3.6230    0.0990   -0.0650 ho        1 OAF      0.430000
@<TRIPOS>BOND
     1    1    2 1   
     2    2    3 1   
     3    2    4 1   
     4    4    5 1   
     5    4    6 1   
     6    4    7 1   
     7    5   13 1   
     8    6   14 1   
     9    7    8 1   
    10    7    9 1   
    11    7   10 1   
    12   10   11 1   
    13   10   12 1   
@<TRIPOS>SUBSTRUCTURE
     1 OAF         1 TEMP              0 ****  ****    0 ROOT
