@<TRIPOS>MOLECULE
molecule
   34    36     1     0     0
SMALL
bcc


@<TRIPOS>ATOM
      1 C1           0.0000     0.0000     0.0000 c3         1 OAG       0.293100
      2 N1           1.4650     0.0000     0.0000 nu         1 OAG      -0.818600
      3 Cl2          4.4250    -0.0020    -0.2910 cl         1 OAG      -0.110400
      4 Cl5          1.3020     0.0060     5.1140 cl         1 OAG      -0.105400
      5 C9          -0.7320    -1.1860    -2.0670 ca         1 OAG      -0.012000
      6 C1'          2.1640     0.0000     1.2100 ca         1 OAG       0.221600
      7 N1'         -1.8500     0.1500    -5.2660 nb         1 OAG      -0.830000
      8 C10         -0.5030    -0.0010    -1.4200 ca         1 OAG      -0.298600
      9 C11          3.5540    -0.0010     1.2110 ca         1 OAG      -0.054600
     10 C12          3.5510     0.0010     3.6060 ca         1 OAG      -0.175000
     11 C2'         -2.0820    -0.9720    -5.9200 ca         1 OAG       1.006900
     12 N2'         -2.5380    -0.8960    -7.2220 nv         1 OAG      -0.979500
     13 C3'          4.2430     0.0000     2.4090 ca         1 OAG      -0.064000
     14 N3'         -1.8960    -2.1740    -5.3810 nb         1 OAG      -0.885000
     15 C4'         -1.4600    -2.3100    -4.1360 ca         1 OAG       0.795200
     16 N4'         -1.2710    -3.5580    -3.5870 nv         1 OAG      -0.985500
     17 C4A         -1.1950    -1.1370    -3.3870 ca         1 OAG      -0.430600
     18 C5'          2.1680     0.0070     3.6090 ca         1 OAG       0.078400
     19 C6'          1.4720     0.0060     2.4130 ca         1 OAG      -0.205000
     20 C7'         -0.7350     1.2020    -2.0770 ca         1 OAG       0.496200
     21 N8'         -1.1740     1.2410    -3.3150 nb         1 OAG      -0.685000
     22 C8A         -1.4060     0.1230    -4.0010 ca         1 OAG       0.786300
     23 H1          -0.3610    -0.8840     0.5110 h1         1 OAG       0.045200
     24 H1A         -0.3610     0.8850     0.5110 h1         1 OAG       0.045200
     25 HN1          1.9650    -0.0050    -0.8670 hn         1 OAG       0.456800
     26 H9          -0.8090    -2.1060    -1.5010 ha         1 OAG       0.131000
     27 H12          4.0930     0.0020     4.5440 ha         1 OAG       0.148000
     28 HN2'        -2.7210    -1.7340    -7.7380 hn         1 OAG       0.453300
     29 HN2A        -2.6850    -0.0030    -7.6490 hn         1 OAG       0.453300
     30 H3'          5.3270    -0.0040     2.4100 ha         1 OAG       0.149000
     31 HN4'        -1.4810    -4.3770    -4.1220 hn         1 OAG       0.448800
     32 HN4A        -0.9060    -3.6460    -2.6590 hn         1 OAG       0.448800
     33 H6'          0.3910     0.0710     2.4160 ha         1 OAG       0.150000
     34 H7'         -0.5500     2.1320    -1.5540 h4         1 OAG       0.031100
@<TRIPOS>BOND
     1     8     1 1
     2     1     2 1
     3     1    23 1
     4     1    24 1
     5     2     6 1
     6     2    25 1
     7     9     3 1
     8     4    18 1
     9    17     5 ar
    10     5     8 ar
    11     5    26 1
    12    19     6 ar
    13     6     9 ar
    14    11     7 ar
    15     7    22 ar
    16    20     8 ar
    17     9    13 ar
    18    18    10 ar
    19    10    13 ar
    20    10    27 1
    21    12    11 1
    22    11    14 ar
    23    12    28 1
    24    12    29 1
    25    13    30 1
    26    14    15 ar
    27    15    17 ar
    28    15    16 1
    29    16    31 1
    30    16    32 1
    31    22    17 ar
    32    19    18 ar
    33    19    33 1
    34    21    20 ar
    35    20    34 1
    36    22    21 ar
@<TRIPOS>SUBSTRUCTURE
     1 OAG         1 TEMP              0 ****  ****    0 ROOT
