@<TRIPOS>MOLECULE
OAH
   34    36     1     0     0
SMALL
bcc


@<TRIPOS>ATOM
      1 P            0.0000     0.0000     0.0000 p5         1 OAH       0.664900
      2 N1          -3.0280    -6.8420    -7.2250 nb         1 OAH      -0.684000
      3 C2          -1.9500    -7.3160    -6.6300 ca         1 OAH       0.601900
      4 N3          -1.4150    -6.7410    -5.5740 nb         1 OAH      -0.608000
      5 C4          -1.9490    -5.6390    -5.0580 ca         1 OAH       0.217800
      6 C5          -3.0990    -5.0940    -5.6560 ca         1 OAH      -0.173200
      7 C6          -3.6340    -5.7450    -6.7810 ca         1 OAH       0.575200
      8 N6          -4.7640    -5.2550    -7.4110 nv         1 OAH      -0.643500
      9 N7          -3.4340    -3.9910    -4.9440 nc         1 OAH      -0.533100
     10 C8          -2.5840    -3.8290    -3.9720 cd         1 OAH       0.314700
     11 N9          -1.6490    -4.8200    -4.0000 na         1 OAH       0.193000
     12 C1'         -0.5290    -4.9810    -3.0700 c3         1 OAH       0.142800
     13 O1P          1.6100     0.0000     0.0000 o          1 OAH      -0.750833
     14 C2'         -0.9220    -5.9490    -1.9380 c3         1 OAH      -0.112400
     15 O2P         -0.4930     0.0000     1.3960 o          1 OAH      -0.750833
     16 C3'         -0.8440    -5.0870    -0.6550 c3         1 OAH       0.155100
     17 O3'          0.4050    -5.2750     0.0120 oh         1 OAH      -0.540800
     18 O3P         -0.5370     1.3140    -0.7580 o          1 OAH      -0.750833
     19 C4'         -0.9560    -3.6490    -1.2250 c3         1 OAH       0.134100
     20 O4'         -0.2130    -3.7180    -2.4610 os         1 OAH      -0.328600
     21 C5'         -0.3170    -2.6390    -0.2680 c3         1 OAH       0.285400
     22 O5'         -0.5360    -1.3150    -0.7580 os         1 OAH      -0.473200
     23 HN6         -5.6710    -5.5730    -7.1320 hn         1 OAH       0.271300
     24 HN6A        -4.6730    -4.6040    -8.1660 hn         1 OAH       0.271300
     25 H1'          0.3390    -5.3620    -3.5940 h2         1 OAH       0.052700
     26 H2'         -0.2180    -6.7710    -1.8830 hc         1 OAH       0.023700
     27 H2'A        -1.9310    -6.3150    -2.0870 hc         1 OAH       0.023700
     28 H3'         -1.6770    -5.3040     0.0030 h1         1 OAH      -0.000300
     29 HO3'         0.3040    -5.9190     0.6930 ho         1 OAH       0.363000
     30 H4'         -1.9920    -3.3980    -1.4180 h1         1 OAH       0.013700
     31 H5'          0.7470    -2.8280    -0.2020 h1         1 OAH      -0.008300
     32 H5'A        -0.7640    -2.7390     0.7140 h1         1 OAH      -0.008300
     33 H2          -1.4880    -8.2130    -7.0250 h5         1 OAH      -0.015900
     34 H8          -2.6150    -3.0240    -3.2480 h5         1 OAH       0.079800
@<TRIPOS>BOND
     1     1    13 1   
     2     1    15 1   
     3     1    18 1   
     4     1    22 1   
     5     2     3 ar  
     6     2     7 ar  
     7     3     4 ar  
     8     3    33 1   
     9     4     5 ar  
    10     5     6 ar  
    11     5    11 1   
    12     6     7 ar  
    13     6     9 1   
    14     7     8 1   
    15     8    23 1   
    16     8    24 1   
    17     9    10 2   
    18    10    11 1   
    19    10    34 1   
    20    11    12 1   
    21    12    14 1   
    22    12    20 1   
    23    12    25 1   
    24    14    16 1   
    25    14    26 1   
    26    14    27 1   
    27    16    17 1   
    28    16    19 1   
    29    16    28 1   
    30    17    29 1   
    31    19    20 1   
    32    19    21 1   
    33    19    30 1   
    34    21    22 1   
    35    21    31 1   
    36    21    32 1   
@<TRIPOS>SUBSTRUCTURE
     1 OAH         1 TEMP              0 ****  ****    0 ROOT
