@<TRIPOS>MOLECULE
OAI
   24    25     1     0     0
SMALL
bcc


@<TRIPOS>ATOM
      1 C1           0.0000     0.0000     0.0000 ca         1 OAI      -0.206200
      2 C2           1.3910     0.0000     0.0000 ca         1 OAI      -0.179000
      3 C3           2.0840     0.0000     1.1940 ca         1 OAI       0.005600
      4 C4           1.3870    -0.0050     2.4190 ca         1 OAI      -0.164600
      5 C5          -0.0050     0.0000     2.4280 ca         1 OAI      -0.019000
      6 C6          -0.7000    -0.0000     1.2240 ca         1 OAI      -0.154800
      7 C9          -2.1240     0.0000     0.8740 cc         1 OAI      -0.163200
      8 C10         -2.1990     0.0010    -0.4650 cd         1 OAI      -0.335100
      9 N11         -0.9400     0.0000    -1.0040 na         1 OAI       0.329600
     10 N12          3.4750    -0.0000     1.1890 ns         1 OAI      -0.027100
     11 C13          4.1460     0.7810     0.3210 c          1 OAI       0.468100
     12 C14          5.6330     0.6920     0.2300 c          1 OAI       0.924600
     13 O15          6.2370    -0.0850     0.9380 o          1 OAI      -0.883800
     14 O16          6.3020     1.4720    -0.6370 o          1 OAI      -0.883800
     15 O17          3.5400     1.5580    -0.3880 o          1 OAI      -0.686100
     16 C18          2.1320    -0.0060     3.6900 c          1 OAI       0.982200
     17 O19          3.3420     0.0960     3.6850 o          1 OAI      -0.892300
     18 O20          1.4700    -0.1190     4.8590 o          1 OAI      -0.892300
     19 H2           1.9320     0.0040    -0.9390 ha         1 OAI       0.122000
     20 H5          -0.5440    -0.0040     3.3680 ha         1 OAI       0.118000
     21 H9          -2.9580     0.0010     1.5660 ha         1 OAI       0.105000
     22 H10         -3.1200     0.0020    -1.0360 h4         1 OAI       0.110000
     23 H11         -0.7340     0.0010    -1.9830 hn         1 OAI       0.094700
     24 H12          3.9760    -0.6140     1.8010 hn         1 OAI       0.227500
@<TRIPOS>BOND
     1     1     2 ar  
     2     1     6 ar  
     3     1     9 1   
     4     2     3 ar  
     5     2    19 1   
     6     3     4 ar  
     7     3    10 1   
     8     4     5 ar  
     9     4    16 1   
    10     5     6 ar  
    11     5    20 1   
    12     6     7 1   
    13     7     8 2   
    14     7    21 1   
    15     8     9 1   
    16     8    22 1   
    17     9    23 1   
    18    10    11 1   
    19    10    24 1   
    20    11    12 1   
    21    11    15 2   
    22    12    13 1   
    23    12    14 1   
    24    16    17 1   
    25    16    18 1   
@<TRIPOS>SUBSTRUCTURE
     1 OAI         1 TEMP              0 ****  ****    0 ROOT
