@<TRIPOS>MOLECULE
OAK
   37    38     1     0     0
SMALL
bcc


@<TRIPOS>ATOM
      1 C9           0.0000     0.0000     0.0000 ca         1 OAK      -0.057500
      2 C10          1.3800     0.0000     0.0000 ca         1 OAK      -0.112500
      3 C11          2.0730     0.0000     1.1970 ca         1 OAK      -0.078000
      4 C12          1.3900     0.0000     2.4000 ca         1 OAK      -0.112500
      5 C13          0.0100     0.0000     2.4140 ca         1 OAK      -0.057500
      6 C8          -0.6960     0.0070     1.2100 ca         1 OAK      -0.155600
      7 C7          -2.1740     0.0060     1.2160 c          1 OAK       0.607700
      8 O7          -2.7870     0.0010     0.1660 o          1 OAK      -0.638100
      9 N1          -2.8430     0.0130     2.3870 ns         1 OAK      -0.174900
     10 C1          -4.3080     0.0130     2.3930 c3         1 OAK       0.226500
     11 O5          -4.7840     1.3550     2.5060 os         1 OAK      -0.397600
     12 C5          -6.2080     1.4730     2.4960 c3         1 OAK       0.171100
     13 C6          -6.5990     2.9490     2.5920 c3         1 OAK       0.225400
     14 O6          -6.1560     3.6370     1.4210 oh         1 OAK      -0.575800
     15 C4          -6.7900     0.7110     3.6900 c3         1 OAK       0.137100
     16 O4          -8.2170     0.7790     3.6500 oh         1 OAK      -0.579800
     17 C3          -6.3440    -0.7530     3.6190 c3         1 OAK       0.146100
     18 O3          -6.8210    -1.4540     4.7670 oh         1 OAK      -0.590800
     19 C2          -4.8130    -0.8080     3.5830 c3         1 OAK       0.130100
     20 O2          -4.3870    -2.1640     3.4430 oh         1 OAK      -0.575800
     21 H9          -0.5420     0.0030    -0.9380 ha         1 OAK       0.113500
     22 H10          1.9210    -0.0030    -0.9390 ha         1 OAK       0.105500
     23 H11          3.1570     0.0000     1.1920 ha         1 OAK       0.102000
     24 H12          1.9400    -0.0020     3.3340 ha         1 OAK       0.105500
     25 H13         -0.5230     0.0030     3.3570 ha         1 OAK       0.113500
     26 HN1         -2.3390     0.0280     3.2520 hn         1 OAK       0.177500
     27 H1          -4.6780    -0.4240     1.4730 h2         1 OAK       0.062700
     28 H5          -6.5960     1.0510     1.5770 h1         1 OAK       0.035700
     29 H6          -7.6760     3.0320     2.6740 h1         1 OAK      -0.003800
     30 H6A         -6.1360     3.3890     3.4670 h1         1 OAK      -0.003800
     31 HO6         -6.5680     4.4840     1.3790 ho         1 OAK       0.387000
     32 H4          -6.4270     1.1530     4.6100 h1         1 OAK       0.019700
     33 HO4         -8.5450     0.9960     4.5070 ho         1 OAK       0.398000
     34 H3          -6.7420    -1.2080     2.7200 h1         1 OAK       0.030700
     35 HO3         -7.4170    -2.1320     4.4960 ho         1 OAK       0.403000
     36 H2          -4.4160    -0.3920     4.5010 h1         1 OAK       0.017700
     37 HO2         -4.2220    -2.5310     4.2960 ho         1 OAK       0.399000
@<TRIPOS>BOND
     1     1     2 ar  
     2     1     6 ar  
     3     1    21 1   
     4     2     3 ar  
     5     2    22 1   
     6     3     4 ar  
     7     3    23 1   
     8     4     5 ar  
     9     4    24 1   
    10     5     6 ar  
    11     5    25 1   
    12     6     7 1   
    13     7     8 2   
    14     7     9 1   
    15     9    10 1   
    16     9    26 1   
    17    10    11 1   
    18    10    19 1   
    19    10    27 1   
    20    11    12 1   
    21    12    13 1   
    22    12    15 1   
    23    12    28 1   
    24    13    14 1   
    25    13    29 1   
    26    13    30 1   
    27    14    31 1   
    28    15    16 1   
    29    15    17 1   
    30    15    32 1   
    31    16    33 1   
    32    17    18 1   
    33    17    19 1   
    34    17    34 1   
    35    18    35 1   
    36    19    20 1   
    37    19    36 1   
    38    20    37 1   
@<TRIPOS>SUBSTRUCTURE
     1 OAK         1 TEMP              0 ****  ****    0 ROOT
