@<TRIPOS>MOLECULE
OAL
   31    33     1     0     0
SMALL
bcc


@<TRIPOS>ATOM
      1 C1          0.0140    0.2620    0.0400 ca        1 OAL     -0.088000
      2 C2          1.4050    0.1690    0.0520 ca        1 OAL     -0.133000
      3 C3          2.0800   -0.1210    1.2410 ca        1 OAL     -0.087600
      4 C4          1.3750   -0.3400    2.4320 ca        1 OAL     -0.145600
      5 C5         -0.0320   -0.2350    2.4040 ca        1 OAL      0.160100
      6 C6         -0.7100    0.0660    1.2110 ca        1 OAL     -0.219000
      7 C7          2.0930   -0.6800    3.6830 c         1 OAL      0.604300
      8 C8          3.5150   -0.3210    3.7440 ca        1 OAL     -0.237600
      9 C9          4.2290   -0.0860    2.5420 ca        1 OAL     -0.147600
     10 C10         3.5650   -0.1790    1.2360 c         1 OAL      0.589300
     11 C11         4.2040   -0.2170    4.9640 ca        1 OAL      0.173100
     12 C12         5.5850    0.1510    5.0100 ca        1 OAL     -0.012300
     13 C13         6.2480    0.3620    3.8070 ca        1 OAL     -0.104000
     14 C14         5.5800    0.2370    2.5830 ca        1 OAL     -0.101000
     15 C15         6.2890    0.2820    6.3050 c3        1 OAL     -0.181100
     16 C16         7.3050    1.4510    6.3480 c         1 OAL      0.916600
     17 O1         -0.7050   -0.4220    3.5860 oh        1 OAL     -0.461100
     18 O2          1.4990   -1.2450    4.6170 o         1 OAL     -0.554100
     19 O3          3.6390   -0.4660    6.1860 oh        1 OAL     -0.491100
     20 O5          8.3040    1.4060    5.5720 o         1 OAL     -0.834800
     21 O4          7.0940    2.3690    7.1850 o         1 OAL     -0.834800
     22 O6          4.1870   -0.2720    0.1660 o         1 OAL     -0.546100
     23 HC1        -0.5130    0.4920   -0.8980 ha        1 OAL      0.131000
     24 HC2         1.9880    0.3200   -0.8710 ha        1 OAL      0.157000
     25 HC6        -1.8060    0.1450    1.2090 ha        1 OAL      0.130000
     26 HC13        7.3180    0.6580    3.8460 ha        1 OAL      0.211000
     27 HC14        6.1270    0.4020    1.6410 ha        1 OAL      0.144000
     28 H151        6.8630   -0.6630    6.4970 hc        1 OAL      0.057200
     29 H152        5.5530    0.4200    7.1380 hc        1 OAL      0.057200
     30 HO1        -1.6520   -0.3240    3.4070 ho        1 OAL      0.410000
     31 HO3         2.6810   -0.5760    6.0950 ho        1 OAL      0.439000
@<TRIPOS>BOND
     1    1    2 ar  
     2    1    6 ar  
     3    1   23 1   
     4    2    3 ar  
     5    2   24 1   
     6    3    4 ar  
     7    3   10 1   
     8    4    5 ar  
     9    4    7 1   
    10    5    6 ar  
    11    5   17 1   
    12    6   25 1   
    13    7    8 1   
    14    7   18 2   
    15    8    9 ar  
    16    8   11 ar  
    17    9   10 1   
    18    9   14 ar  
    19   10   22 2   
    20   11   12 ar  
    21   11   19 1   
    22   12   13 ar  
    23   12   15 1   
    24   13   14 ar  
    25   13   26 1   
    26   14   27 1   
    27   15   16 1   
    28   15   28 1   
    29   15   29 1   
    30   16   20 1   
    31   16   21 1   
    32   17   30 1   
    33   19   31 1   
@<TRIPOS>SUBSTRUCTURE
     1 OAL         1 TEMP              0 ****  ****    0 ROOT
