@<TRIPOS>MOLECULE
molecule
   31    33     1     0     0
SMALL
bcc


@<TRIPOS>ATOM
      1 C1           0.0000     0.0000     0.0000 ca         1 OAL      -0.100000
      2 C2           1.3860     0.0000     0.0000 ca         1 OAL      -0.119000
      3 C3           2.0830     0.0000     1.2030 ca         1 OAL      -0.098600
      4 C4           1.3760    -0.0000     2.4190 ca         1 OAL      -0.144600
      5 C5          -0.0220     0.0010     2.4040 ca         1 OAL       0.160100
      6 C6          -0.6990     0.0010     1.1880 ca         1 OAL      -0.203000
      7 C7           2.1060     0.0020     3.7000 c          1 OAL       0.582300
      8 C8           3.5800     0.0010     3.7050 ca         1 OAL      -0.167600
      9 C9           4.2910     0.0010     2.4930 ca         1 OAL      -0.163600
     10 C10          3.5610     0.0010     1.2090 c          1 OAL       0.596300
     11 C11          4.2790    -0.0020     4.9160 ca         1 OAL       0.161100
     12 C12          5.6710     0.0040     4.9090 ca         1 OAL      -0.003300
     13 C13          6.3620     0.0030     3.7150 ca         1 OAL      -0.111000
     14 C14          5.6810     0.0020     2.5080 ca         1 OAL      -0.084000
     15 C15          6.4270     0.0060     6.2120 c3         1 OAL      -0.155100
     16 C16          6.6790     1.4270     6.6450 c          1 OAL       0.900600
     17 O1          -0.7150     0.0030     3.5690 oh         1 OAL      -0.468100
     18 O2           1.4930     0.0030     4.7500 o          1 OAL      -0.490100
     19 O3           3.6050    -0.0070     6.0920 oh         1 OAL      -0.480100
     20 O5           6.2840     2.3440     5.9650 o          1 OAL      -0.835300
     21 O4           7.3410     1.6730     7.7870 o          1 OAL      -0.835300
     22 O6           4.1740    -0.0000     0.1580 o          1 OAL      -0.544100
     23 HC1         -0.5380     0.0000    -0.9400 ha         1 OAL       0.128000
     24 HC2          1.9270    -0.0010    -0.9390 ha         1 OAL       0.151000
     25 HC6         -1.7830     0.0010     1.1760 ha         1 OAL       0.129000
     26 HC13         7.4450     0.0090     3.7210 ha         1 OAL       0.142000
     27 HC14         6.2330     0.0020     1.5750 ha         1 OAL       0.139000
     28 H151         7.3740    -0.5050     6.0810 hc         1 OAL       0.046200
     29 H152         5.8440    -0.5050     6.9690 hc         1 OAL       0.046200
     30 HO1         -1.4620    -0.5680     3.4920 ho         1 OAL       0.412000
     31 HO3          3.3740    -0.8930     6.3180 ho         1 OAL       0.411000
@<TRIPOS>BOND
     1     1     2 ar
     2     1     6 ar
     3     1    23 1
     4     2     3 ar
     5     2    24 1
     6     3     4 ar
     7     3    10 1
     8     4     5 ar
     9     4     7 1
    10     5     6 ar
    11     5    17 1
    12     6    25 1
    13     7     8 1
    14     7    18 2
    15     8     9 ar
    16     8    11 ar
    17     9    10 1
    18     9    14 ar
    19    10    22 2
    20    11    12 ar
    21    11    19 1
    22    12    13 ar
    23    12    15 1
    24    13    14 ar
    25    13    26 1
    26    14    27 1
    27    15    16 1
    28    15    28 1
    29    15    29 1
    30    16    20 1
    31    16    21 1
    32    17    30 1
    33    19    31 1
@<TRIPOS>SUBSTRUCTURE
     1 OAL         1 TEMP              0 ****  ****    0 ROOT
