@<TRIPOS>MOLECULE
OAM
   39    41     1     0     0
SMALL
bcc


@<TRIPOS>ATOM
      1 CAA          0.0000     0.0000     0.0000 c3         1 OAM       0.013600
      2 CAB          1.5070     0.0000     0.0000 cc         1 OAM       0.165800
      3 NAC          2.2780     0.0000     1.0510 nd         1 OAM      -0.321000
      4 NAD          3.5130    -0.0010     0.6930 nd         1 OAM      -0.331000
      5 CAE          3.5970    -0.0020    -0.6190 cc         1 OAM       0.306000
      6 CAF          4.8360    -0.0030    -1.4210 cc         1 OAM      -0.373800
      7 CAG          5.1170    -0.8320    -2.5280 cc         1 OAM       0.396200
      8 NAH          6.3100    -0.5360    -2.9680 nd         1 OAM      -0.645800
      9 NAI          6.8480     0.4830    -2.1770 na         1 OAM       0.488400
     10 CAJ          8.1690     1.0950    -2.3480 c3         1 OAM       0.020600
     11 CAK          5.9410     0.8150    -1.2330 cd         1 OAM      -0.081700
     12 NAL          6.0870     1.7850    -0.2540 nv         1 OAM      -0.497200
     13 NAM          2.3150    -0.0080    -1.1000 na         1 OAM       0.128300
     14 CAN          1.8970    -0.0170    -2.5050 c3         1 OAM      -0.034700
     15 CAO          1.8170     1.4210    -3.0220 c3         1 OAM      -0.067400
     16 CAP          1.3810     1.4120    -4.4890 c3         1 OAM      -0.035700
     17 NAQ          1.3070     2.7880    -4.9850 na         1 OAM       0.280100
     18 CAR          2.3190     3.4970    -5.5730 cc         1 OAM      -0.433600
     19 CAS          1.8220     4.7110    -5.8740 cd         1 OAM       0.328200
     20 NAT          0.5400     4.7440    -5.4800 nd         1 OAM      -0.616000
     21 CAU          0.2230     3.5930    -4.9510 cc         1 OAM       0.221400
     22 HAA         -0.3610    -0.7990    -0.6360 hc         1 OAM       0.013700
     23 HAAA        -0.3610     0.9510    -0.3730 hc         1 OAM       0.013700
     24 HAAB        -0.3610    -0.1520     1.0100 hc         1 OAM       0.013700
     25 HAG          4.4570    -1.5840    -2.9420 h4         1 OAM       0.001100
     26 HAJ          8.7560     0.9430    -1.4510 h1         1 OAM       0.023700
     27 HAJA         8.0550     2.1570    -2.5300 h1         1 OAM       0.023700
     28 HAJB         8.6720     0.6370    -3.1910 h1         1 OAM       0.023700
     29 HNAL         5.8240     2.7320    -0.4450 hn         1 OAM       0.281300
     30 HNAA         6.4660     1.5420     0.6400 hn         1 OAM       0.281300
     31 HAN          0.9240    -0.4850    -2.5890 h1         1 OAM       0.042700
     32 HANA         2.6180    -0.5730    -3.0920 h1         1 OAM       0.042700
     33 HAO          2.7900     1.8900    -2.9380 hc         1 OAM       0.039700
     34 HAOA         1.0970     1.9770    -2.4350 hc         1 OAM       0.039700
     35 HAP          0.4080     0.9450    -4.5730 h1         1 OAM       0.036700
     36 HAPA         2.1010     0.8550    -5.0760 h1         1 OAM       0.036700
     37 HAR          3.3270     3.1470    -5.7610 h4         1 OAM       0.153000
     38 HAS          2.3630     5.5210    -6.3490 h4         1 OAM       0.003100
     39 HAU         -0.7470     3.3310    -4.5460 h5         1 OAM       0.022100
@<TRIPOS>BOND
     1     1     2 1   
     2     1    22 1   
     3     1    23 1   
     4     1    24 1   
     5     2     3 2   
     6     2    13 1   
     7     3     4 1   
     8     4     5 2   
     9     5     6 1   
    10     5    13 1   
    11     6     7 1   
    12     6    11 2   
    13     7     8 2   
    14     7    25 1   
    15     8     9 1   
    16     9    10 1   
    17     9    11 1   
    18    10    26 1   
    19    10    27 1   
    20    10    28 1   
    21    11    12 1   
    22    12    29 1   
    23    12    30 1   
    24    13    14 1   
    25    14    15 1   
    26    14    31 1   
    27    14    32 1   
    28    15    16 1   
    29    15    33 1   
    30    15    34 1   
    31    16    17 1   
    32    16    35 1   
    33    16    36 1   
    34    17    18 1   
    35    17    21 1   
    36    18    19 2   
    37    18    37 1   
    38    19    20 1   
    39    19    38 1   
    40    20    21 2   
    41    21    39 1   
@<TRIPOS>SUBSTRUCTURE
     1 OAM         1 TEMP              0 ****  ****    0 ROOT
