@<TRIPOS>MOLECULE
OAN
   44    45     1     0     0
SMALL
bcc


@<TRIPOS>ATOM
      1 CAH          0.0000     0.0000     0.0000 c3         1 OAN      -0.064100
      2 CAG          1.5070     0.0000     0.0000 c          1 OAN       0.588100
      3 OAN          2.1140     0.0000     1.0500 o          1 OAN      -0.642100
      4 NAI          2.1810     0.0010    -1.1680 ns         1 OAN      -0.178900
      5 CAB          3.6450     0.0020    -1.1680 c3         1 OAN      -0.011600
      6 CAC          4.1620     0.6130    -2.4770 c3         1 OAN       0.156100
      7 OAJ          3.8560     2.0090    -2.5070 oh         1 OAN      -0.577800
      8 CAD          5.6800     0.4200    -2.5500 c3         1 OAN       0.137100
      9 OAK          6.1740     0.9800    -3.7680 oh         1 OAN      -0.583800
     10 CAE          6.0040    -1.0760    -2.5060 c3         1 OAN       0.170100
     11 CAF          7.5220    -1.2700    -2.5410 c3         1 OAN       0.223400
     12 OAM          7.8210    -2.6650    -2.6180 oh         1 OAN      -0.584800
     13 OAL          5.4780    -1.6390    -1.2990 os         1 OAN      -0.397400
     14 CAA          4.1570    -1.4190    -1.0740 c2         1 OAN       0.438600
     15 NAY          3.3610    -2.3930    -0.7880 n2         1 OAN      -0.322200
     16 OAQ          3.7910    -3.5310    -0.7170 os         1 OAN      -0.124600
     17 CAP          2.9080    -4.5000    -0.4150 c          1 OAN       0.642100
     18 OAR          1.7400    -4.2220    -0.2270 o          1 OAN      -0.598000
     19 NAO          3.3190    -5.7800    -0.3200 ns         1 OAN       0.001900
     20 CAS          2.4230    -6.7750     0.0880 ca         1 OAN      -0.090400
     21 CAT          1.0860    -6.7000    -0.2800 ca         1 OAN      -0.115000
     22 CAU          0.2050    -7.6840     0.1230 ca         1 OAN      -0.083000
     23 CAV          0.6510    -8.7410     0.8950 ca         1 OAN      -0.111000
     24 CAW          1.9820    -8.8170     1.2640 ca         1 OAN      -0.083000
     25 CAX          2.8700    -7.8410     0.8580 ca         1 OAN      -0.115000
     26 HAH1        -0.3610    -0.7600    -0.6830 hc         1 OAN       0.022700
     27 HAH2        -0.3610    -0.2110     0.9990 hc         1 OAN       0.022700
     28 HAH3        -0.3610     0.9710    -0.3160 hc         1 OAN       0.022700
     29 HAI          1.6800     0.0280    -2.0350 hn         1 OAN       0.169500
     30 HAB          4.0150     0.5780    -0.3280 h1         1 OAN       0.082700
     31 HAC          3.6940     0.1150    -3.3170 h1         1 OAN       0.017700
     32 HAJ          3.4380     2.2210    -3.3260 ho         1 OAN       0.398000
     33 HAD          6.1460     0.9130    -1.7050 h1         1 OAN       0.028700
     34 HAK          6.5990     1.8010    -3.5860 ho         1 OAN       0.402000
     35 HAE          5.5520    -1.5670    -3.3590 h1         1 OAN       0.031700
     36 HAF1         7.9600    -0.8560    -1.6410 h1         1 OAN       0.000700
     37 HAF2         7.9310    -0.7650    -3.4080 h1         1 OAN       0.000700
     38 HAM          8.7470    -2.7810    -2.7570 ho         1 OAN       0.391000
     39 HAO          4.2670    -6.0190    -0.5350 hn         1 OAN       0.169500
     40 HAT          0.7350    -5.8730    -0.8850 ha         1 OAN       0.126000
     41 HAU         -0.8380    -7.6270    -0.1640 ha         1 OAN       0.103500
     42 HAV         -0.0430    -9.5100     1.2130 ha         1 OAN       0.103000
     43 HAW          2.3290    -9.6470     1.8670 ha         1 OAN       0.103500
     44 HAX          3.9120    -7.9010     1.1480 ha         1 OAN       0.126000
@<TRIPOS>BOND
     1     1     2 1   
     2     1    26 1   
     3     1    27 1   
     4     1    28 1   
     5     2     3 2   
     6     2     4 1   
     7     4     5 1   
     8     4    29 1   
     9     5     6 1   
    10     5    14 1   
    11     5    30 1   
    12     6     7 1   
    13     6     8 1   
    14     6    31 1   
    15     7    32 1   
    16     8     9 1   
    17     8    10 1   
    18     8    33 1   
    19     9    34 1   
    20    10    11 1   
    21    10    13 1   
    22    10    35 1   
    23    11    12 1   
    24    11    36 1   
    25    11    37 1   
    26    12    38 1   
    27    13    14 1   
    28    14    15 2   
    29    15    16 1   
    30    16    17 1   
    31    17    18 2   
    32    17    19 1   
    33    19    20 1   
    34    19    39 1   
    35    20    21 ar  
    36    20    25 ar  
    37    21    22 ar  
    38    21    40 1   
    39    22    23 ar  
    40    22    41 1   
    41    23    24 ar  
    42    23    42 1   
    43    24    25 ar  
    44    24    43 1   
    45    25    44 1   
@<TRIPOS>SUBSTRUCTURE
     1 OAN         1 TEMP              0 ****  ****    0 ROOT
