@<TRIPOS>MOLECULE
molecule
   44    45     1     0     0
SMALL
bcc


@<TRIPOS>ATOM
      1 CAH          0.0000     0.0000     0.0000 c3         1 OAN      -0.165100
      2 CAG          1.5070     0.0000     0.0000 c          1 OAN       0.675100
      3 OAN          2.1140     0.0000     1.0500 o          1 OAN      -0.599100
      4 NAI          2.1810     0.0010    -1.1680 ns         1 OAN      -0.573900
      5 CAB          3.6450     0.0020    -1.1680 c3         1 OAN       0.091400
      6 CAC          4.1620     0.6130    -2.4770 c3         1 OAN       0.114100
      7 OAJ          3.8560     2.0090    -2.5070 oh         1 OAN      -0.593800
      8 CAD          5.6800     0.4200    -2.5500 c3         1 OAN       0.100100
      9 OAK          6.1740     0.9800    -3.7680 oh         1 OAN      -0.601800
     10 CAE          6.0040    -1.0760    -2.5060 c3         1 OAN       0.152100
     11 CAF          7.5220    -1.2700    -2.5410 c3         1 OAN       0.150400
     12 OAM          7.8210    -2.6650    -2.6180 oh         1 OAN      -0.599800
     13 OAL          5.4780    -1.6390    -1.2990 os         1 OAN      -0.424400
     14 CAA          4.1570    -1.4190    -1.0740 c2         1 OAN       0.506600
     15 NAY          3.3610    -2.3930    -0.7880 n2         1 OAN      -0.414200
     16 OAQ          3.7910    -3.5310    -0.7170 os         1 OAN      -0.130600
     17 CAP          2.9080    -4.5000    -0.4150 c          1 OAN       0.751100
     18 OAR          1.7400    -4.2220    -0.2270 o          1 OAN      -0.550000
     19 NAO          3.3190    -5.7800    -0.3200 ns         1 OAN      -0.460100
     20 CAS          2.4230    -6.7750     0.0880 ca         1 OAN       0.067600
     21 CAT          1.0860    -6.7000    -0.2800 ca         1 OAN      -0.141000
     22 CAU          0.2050    -7.6840     0.1230 ca         1 OAN      -0.112500
     23 CAV          0.6510    -8.7410     0.8950 ca         1 OAN      -0.141000
     24 CAW          1.9820    -8.8170     1.2640 ca         1 OAN      -0.112500
     25 CAX          2.8700    -7.8410     0.8580 ca         1 OAN      -0.141000
     26 HAH1        -0.3610     1.0040    -0.1900 hc         1 OAN       0.062033
     27 HAH2        -0.3610    -0.3370     0.9640 hc         1 OAN       0.062033
     28 HAH3        -0.3610    -0.6660    -0.7740 hc         1 OAN       0.062033
     29 HAI          1.6810     0.0360    -2.0340 hn         1 OAN       0.314500
     30 HAB          4.0150     0.5780    -0.3280 h1         1 OAN       0.117700
     31 HAC          3.6940     0.1150    -3.3170 h1         1 OAN       0.053700
     32 HAJ          3.4130     2.2160    -3.3130 ho         1 OAN       0.413000
     33 HAD          6.1460     0.9130    -1.7050 h1         1 OAN       0.063700
     34 HAK          6.5770     1.8130    -3.5900 ho         1 OAN       0.417000
     35 HAE          5.5520    -1.5670    -3.3590 h1         1 OAN       0.069700
     36 HAF1         7.9310    -0.7650    -3.4080 h1         1 OAN       0.039200
     37 HAF2         7.9600    -0.8560    -1.6410 h1         1 OAN       0.039200
     38 HAM          8.7480    -2.7820    -2.7460 ho         1 OAN       0.405000
     39 HAO          4.2590    -6.0230    -0.5620 hn         1 OAN       0.336500
     40 HAT          0.7350    -5.8730    -0.8850 ha         1 OAN       0.149500
     41 HAU         -0.8380    -7.6270    -0.1640 ha         1 OAN       0.133000
     42 HAV         -0.0430    -9.5100     1.2130 ha         1 OAN       0.130000
     43 HAW          2.3290    -9.6470     1.8670 ha         1 OAN       0.133000
     44 HAX          3.9120    -7.9010     1.1480 ha         1 OAN       0.149500
@<TRIPOS>BOND
     1     1     2 1
     2     1    26 1
     3     1    27 1
     4     1    28 1
     5     2     3 2
     6     2     4 1
     7     4     5 1
     8     4    29 1
     9     5     6 1
    10     5    14 1
    11     5    30 1
    12     6     7 1
    13     6     8 1
    14     6    31 1
    15     7    32 1
    16     8     9 1
    17     8    10 1
    18     8    33 1
    19     9    34 1
    20    10    11 1
    21    10    13 1
    22    10    35 1
    23    11    12 1
    24    11    36 1
    25    11    37 1
    26    12    38 1
    27    13    14 1
    28    14    15 2
    29    15    16 1
    30    16    17 1
    31    17    18 2
    32    17    19 1
    33    19    20 1
    34    19    39 1
    35    20    21 ar
    36    20    25 ar
    37    21    22 ar
    38    21    40 1
    39    22    23 ar
    40    22    41 1
    41    23    24 ar
    42    23    42 1
    43    24    25 ar
    44    24    43 1
    45    25    44 1
@<TRIPOS>SUBSTRUCTURE
     1 OAN         1 TEMP              0 ****  ****    0 ROOT
