@<TRIPOS>MOLECULE
molecule
   72    74     1     0     0
SMALL
bcc


@<TRIPOS>ATOM
      1 C1           0.0000     0.0000     0.0000 c3         1 OAP      -0.014300
      2 C2           1.5290     0.0000     0.0000 c3         1 OAP       0.116700
      3 C3           2.0400     0.0000     1.4420 c3         1 OAP      -0.072400
      4 C31          3.5690    -0.0000     1.4430 c3         1 OAP      -0.178400
      5 C32          4.0720     0.0000     2.8630 c          1 OAP       0.890600
      6 O31          3.2870     0.0010     3.7810 o          1 OAP      -0.858300
      7 O32          5.3910    -0.0000     3.1090 o          1 OAP      -0.858300
      8 S11         -0.6050    -0.0010    -1.7090 ss         1 OAP      -0.258000
      9 C11         -2.3430    -0.0000    -1.4200 ca         1 OAP       0.040900
     10 C12         -3.2280    -0.0010    -2.4910 ca         1 OAP      -0.132500
     11 C13         -4.5890    -0.0000    -2.2610 ca         1 OAP      -0.108000
     12 C14         -5.0720     0.0020    -0.9640 ca         1 OAP      -0.098300
     13 C15         -4.1940     0.0020     0.1050 ca         1 OAP      -0.108000
     14 C16         -2.8320    -0.0050    -0.1190 ca         1 OAP      -0.132500
     15 C17         -6.5580     0.0040    -0.7170 c3         1 OAP       0.013200
     16 C18         -7.0550    -1.4170    -0.6320 ca         1 OAP      -0.057300
     17 C19         -7.0860    -2.0670     0.5870 ca         1 OAP      -0.122500
     18 C40         -7.5420    -3.3690     0.6650 ca         1 OAP      -0.134000
     19 C41         -7.9670    -4.0220    -0.4770 ca         1 OAP      -0.135000
     20 C42         -7.9370    -3.3710    -1.6960 ca         1 OAP      -0.134000
     21 C43         -7.4850    -2.0670    -1.7730 ca         1 OAP      -0.122500
     22 N21          2.0180     1.1940    -0.6920 ns         1 OAP      -0.578900
     23 C21          3.1950     1.1600    -1.3470 c          1 OAP       0.662100
     24 O21          3.8500     0.1400    -1.3630 o          1 OAP      -0.599100
     25 C22          3.6980     2.3890    -2.0580 c3         1 OAP      -0.157400
     26 C23          5.0460     2.0830    -2.7140 c3         1 OAP      -0.066400
     27 C24          5.5570     3.3300    -3.4360 c3         1 OAP      -0.084400
     28 C25          6.9050     3.0250    -4.0930 c3         1 OAP      -0.081400
     29 C26          7.4150     4.2740    -4.8150 c3         1 OAP      -0.077400
     30 C27          8.7630     3.9670    -5.4720 c3         1 OAP      -0.039100
     31 C28          9.2650     5.1970    -6.1830 ca         1 OAP      -0.074300
     32 C50         10.0610     6.1060    -5.5130 ca         1 OAP      -0.125500
     33 C51         10.5220     7.2340    -6.1650 ca         1 OAP      -0.128500
     34 C52         10.1890     7.4510    -7.4890 ca         1 OAP      -0.138000
     35 C53          9.3950     6.5410    -8.1600 ca         1 OAP      -0.128500
     36 C54          8.9370     5.4120    -7.5080 ca         1 OAP      -0.125500
     37 H11         -0.3610     0.8850     0.5100 h1         1 OAP       0.070700
     38 H12A        -0.3610    -0.8840     0.5110 h1         1 OAP       0.070700
     39 H2           1.8890    -0.8850    -0.5100 h1         1 OAP       0.087700
     40 H31          1.6790     0.8840     1.9530 hc         1 OAP       0.049700
     41 H32          1.6790    -0.8840     1.9530 hc         1 OAP       0.049700
     42 H311         3.9310     0.8840     0.9320 hc         1 OAP       0.041700
     43 H312         3.9300    -0.8850     0.9320 hc         1 OAP       0.041700
     44 H12         -2.8500    -0.0020    -3.5060 ha         1 OAP       0.140500
     45 H13         -5.2790    -0.0000    -3.0960 ha         1 OAP       0.126500
     46 H15         -4.5760     0.0010     1.1180 ha         1 OAP       0.126500
     47 H16         -2.1450    -0.0050     0.7190 ha         1 OAP       0.140500
     48 H171        -6.7690     0.5160     0.2140 hc         1 OAP       0.051200
     49 H172        -7.0590     0.5140    -1.5310 hc         1 OAP       0.051200
     50 H19         -6.7930    -1.5410     1.4880 ha         1 OAP       0.131500
     51 H40         -7.5410    -3.8880     1.6170 ha         1 OAP       0.126000
     52 H41         -8.3220    -5.0430    -0.4170 ha         1 OAP       0.123000
     53 H42         -8.2520    -3.8880    -2.5940 ha         1 OAP       0.126000
     54 H43         -7.7210    -1.7290    -2.7750 ha         1 OAP       0.131500
     55 HN2          1.4730     2.0330    -0.6860 hn         1 OAP       0.306500
     56 H221         3.8180     3.1950    -1.3450 hc         1 OAP       0.053200
     57 H222         2.9850     2.6830    -2.8190 hc         1 OAP       0.053200
     58 H231         4.9250     1.2770    -3.4280 hc         1 OAP       0.062700
     59 H232         5.7590     1.7880    -1.9540 hc         1 OAP       0.062700
     60 H241         5.6780     4.1360    -2.7220 hc         1 OAP       0.035700
     61 H242         4.8430     3.6250    -4.1960 hc         1 OAP       0.035700
     62 H251         7.6180     2.7300    -3.3330 hc         1 OAP       0.045200
     63 H252         6.7840     2.2190    -4.8070 hc         1 OAP       0.045200
     64 H261         6.7020     4.5690    -5.5750 hc         1 OAP       0.043200
     65 H262         7.5370     5.0800    -4.1010 hc         1 OAP       0.043200
     66 H271         9.4770     3.6720    -4.7120 hc         1 OAP       0.049700
     67 H272         8.6420     3.1610    -6.1860 hc         1 OAP       0.049700
     68 H50         10.3220     5.9360    -4.4750 ha         1 OAP       0.131000
     69 H51         11.1450     7.9470    -5.6390 ha         1 OAP       0.125000
     70 H52         10.5490     8.3360    -8.0010 ha         1 OAP       0.123000
     71 H53          9.1350     6.7100    -9.1980 ha         1 OAP       0.125000
     72 H54          8.3140     4.6980    -8.0340 ha         1 OAP       0.131000
@<TRIPOS>BOND
     1     1     2 1
     2     1     8 1
     3     1    37 1
     4     1    38 1
     5     2     3 1
     6     2    22 1
     7     2    39 1
     8     3     4 1
     9     3    40 1
    10     3    41 1
    11     4     5 1
    12     4    42 1
    13     4    43 1
    14     5     6 1
    15     5     7 1
    16     8     9 1
    17     9    10 ar
    18     9    14 ar
    19    10    11 ar
    20    10    44 1
    21    11    12 ar
    22    11    45 1
    23    12    13 ar
    24    12    15 1
    25    13    14 ar
    26    13    46 1
    27    14    47 1
    28    15    16 1
    29    15    48 1
    30    15    49 1
    31    16    17 ar
    32    16    21 ar
    33    17    18 ar
    34    17    50 1
    35    18    19 ar
    36    18    51 1
    37    19    20 ar
    38    19    52 1
    39    20    21 ar
    40    20    53 1
    41    21    54 1
    42    22    23 1
    43    22    55 1
    44    23    24 2
    45    23    25 1
    46    25    26 1
    47    25    56 1
    48    25    57 1
    49    26    27 1
    50    26    58 1
    51    26    59 1
    52    27    28 1
    53    27    60 1
    54    27    61 1
    55    28    29 1
    56    28    62 1
    57    28    63 1
    58    29    30 1
    59    29    64 1
    60    29    65 1
    61    30    31 1
    62    30    66 1
    63    30    67 1
    64    31    32 ar
    65    31    36 ar
    66    32    33 ar
    67    32    68 1
    68    33    34 ar
    69    33    69 1
    70    34    35 ar
    71    34    70 1
    72    35    36 ar
    73    35    71 1
    74    36    72 1
@<TRIPOS>SUBSTRUCTURE
     1 OAP         1 TEMP              0 ****  ****    0 ROOT
