@<TRIPOS>MOLECULE
molecule
   41    42     1     0     0
SMALL
bcc


@<TRIPOS>ATOM
      1 C1           0.0000     0.0000     0.0000 ca         1 OAQ      -0.092000
      2 C2           1.3810     0.0000     0.0000 ca         1 OAQ      -0.052300
      3 C3           2.0760     0.0000     1.1960 ca         1 OAQ      -0.143200
      4 C4           1.3860    -0.0010     2.3920 ca         1 OAQ      -0.089000
      5 C5          -0.0040    -0.0010     2.3940 ca         1 OAQ       0.118600
      6 C6          -0.6990     0.0020     1.1950 ca         1 OAQ      -0.099300
      7 C7          -2.1220     0.2920     3.6320 c3         1 OAQ       0.187500
      8 C8          -2.7770    -0.4840     2.4840 c3         1 OAQ      -0.121400
      9 C9          -2.2050     0.0170     1.1590 c3         1 OAQ      -0.033100
     10 C10          2.1330    -0.0010    -1.3060 c3         1 OAQ       0.184700
     11 C11         -2.7300    -0.1440     4.9670 c3         1 OAQ       0.153800
     12 C12         -1.5050     0.2760     8.4520 c3         1 OAQ      -0.104600
     13 C13         -3.7740     1.0060     7.7020 c3         1 OAQ      -0.104600
     14 C14         -2.5740     0.1170     7.3680 c3         1 OAQ       0.156500
     15 N1          -0.6840    -0.0080     3.6170 nu         1 OAQ      -0.700600
     16 N2           3.5560     0.0000     1.1940 no         1 OAQ       0.296200
     17 N3          -2.0160     0.5140     6.0690 n7         1 OAQ      -0.805200
     18 O1           4.1660     0.0000     2.2470 o          1 OAQ      -0.213000
     19 O2           4.1630     0.0020     0.1380 o          1 OAQ      -0.213000
     20 O3           1.2040    -0.0010    -2.3910 oh         1 OAQ      -0.624800
     21 H1          -0.5390    -0.0000    -0.9400 ha         1 OAQ       0.168000
     22 H2           1.9290    -0.0010     3.3300 ha         1 OAQ       0.176000
     23 H3          -2.2730     1.3550     3.4860 h1         1 OAQ       0.071700
     24 H4          -3.8440    -0.2970     2.4980 hc         1 OAQ       0.054200
     25 H5          -2.5430    -1.5360     2.5920 hc         1 OAQ       0.054200
     26 H6          -2.5360     1.0370     1.0030 hc         1 OAQ       0.063200
     27 H7          -2.5380    -0.6430     0.3670 hc         1 OAQ       0.063200
     28 H8           2.7560    -0.8850    -1.3640 h1         1 OAQ       0.058200
     29 H9           2.7560     0.8840    -1.3650 h1         1 OAQ       0.058200
     30 H10         -2.6410    -1.2190     5.0690 h1         1 OAQ       0.038200
     31 H11         -3.7760     0.1360     4.9950 h1         1 OAQ       0.038200
     32 H12         -0.6790    -0.3940     8.2460 hc         1 OAQ       0.039033
     33 H13         -1.1470     1.2980     8.4600 hc         1 OAQ       0.039033
     34 H14         -1.9310     0.0360     9.4190 hc         1 OAQ       0.039033
     35 H15         -3.4980     2.0470     7.5800 hc         1 OAQ       0.039033
     36 H16         -4.5950     0.7710     7.0350 hc         1 OAQ       0.039033
     37 H17         -4.0800     0.8310     8.7260 hc         1 OAQ       0.039033
     38 H18         -2.8920    -0.9170     7.3240 h1         1 OAQ       0.055700
     39 H19         -0.5190    -0.8760     4.0860 hn         1 OAQ       0.393800
     40 H20         -2.0850     1.5070     5.9650 hn         1 OAQ       0.360800
     41 H22          1.6750    -0.0000    -3.2080 ho         1 OAQ       0.413000
@<TRIPOS>BOND
     1    19    16 1
     2    18    16 1
     3    16     3 1
     4     3     4 ar
     5     3     2 ar
     6    10     2 1
     7    10    20 1
     8     4     5 ar
     9     2     1 ar
    10     5    15 1
    11     5     6 ar
    12     1     6 ar
    13    15     7 1
    14     6     9 1
    15     7     8 1
    16     7    11 1
    17     9     8 1
    18    11    17 1
    19    17    14 1
    20    14    13 1
    21    14    12 1
    22     1    21 1
    23     4    22 1
    24     7    23 1
    25     8    24 1
    26     8    25 1
    27     9    26 1
    28     9    27 1
    29    10    28 1
    30    10    29 1
    31    11    30 1
    32    11    31 1
    33    12    32 1
    34    12    33 1
    35    12    34 1
    36    13    35 1
    37    13    36 1
    38    13    37 1
    39    14    38 1
    40    15    39 1
    41    17    40 1
    42    20    41 1
@<TRIPOS>SUBSTRUCTURE
     1 OAQ         1 TEMP              0 ****  ****    0 ROOT
