@<TRIPOS>MOLECULE
OAQ
   41    42     1     0     0
SMALL
bcc


@<TRIPOS>ATOM
      1 C1           0.0000     0.0000     0.0000 ca         1 OAQ      -0.081000
      2 C2           1.3810     0.0000     0.0000 ca         1 OAQ      -0.034300
      3 C3           2.0760     0.0000     1.1960 ca         1 OAQ      -0.437200
      4 C4           1.3860    -0.0010     2.3920 ca         1 OAQ      -0.030000
      5 C5          -0.0040    -0.0010     2.3940 ca         1 OAQ       0.007600
      6 C6          -0.6990     0.0020     1.1950 ca         1 OAQ      -0.084300
      7 C7          -2.1220     0.2920     3.6320 c3         1 OAQ       0.114500
      8 C8          -2.7770    -0.4840     2.4840 c3         1 OAQ      -0.063400
      9 C9          -2.2050     0.0170     1.1590 c3         1 OAQ       0.033900
     10 C10          2.1330    -0.0010    -1.3060 c3         1 OAQ       0.262700
     11 C11         -2.7300    -0.1440     4.9670 c3         1 OAQ       0.140800
     12 C12         -1.5050     0.2760     8.4520 c3         1 OAQ      -0.009600
     13 C13         -3.7740     1.0060     7.7020 c3         1 OAQ      -0.009600
     14 C14         -2.5740     0.1170     7.3680 c3         1 OAQ       0.111500
     15 N1          -0.6840    -0.0080     3.6170 nu         1 OAQ      -0.396600
     16 N2           3.5560     0.0000     1.1940 no         1 OAQ       1.053200
     17 N3          -2.0160     0.5140     6.0690 n7         1 OAQ      -0.576200
     18 O1           4.1660     0.0000     2.2470 o          1 OAQ      -0.458000
     19 O2           4.1630     0.0020     0.1380 o          1 OAQ      -0.458000
     20 O3           1.2040    -0.0010    -2.3910 oh         1 OAQ      -0.605800
     21 H1          -0.5390    -0.0000    -0.9400 ha         1 OAQ       0.137000
     22 H2           1.9290    -0.0010     3.3300 ha         1 OAQ       0.142000
     23 H3          -2.2730     1.3550     3.4860 h1         1 OAQ       0.042700
     24 H4          -3.8440    -0.2970     2.4980 hc         1 OAQ       0.026700
     25 H5          -2.5430    -1.5360     2.5920 hc         1 OAQ       0.026700
     26 H6          -2.5360     1.0370     1.0030 hc         1 OAQ       0.031200
     27 H7          -2.5380    -0.6430     0.3670 hc         1 OAQ       0.031200
     28 H8           2.7560    -0.8850    -1.3640 h1         1 OAQ       0.023200
     29 H9           2.7560     0.8840    -1.3650 h1         1 OAQ       0.023200
     30 H10         -2.6410    -1.2190     5.0690 h1         1 OAQ       0.012700
     31 H11         -3.7760     0.1360     4.9950 h1         1 OAQ       0.012700
     32 H12         -0.6790    -0.3940     8.2460 hc         1 OAQ       0.007533
     33 H13         -1.1470     1.2980     8.4600 hc         1 OAQ       0.007533
     34 H14         -1.9310     0.0360     9.4190 hc         1 OAQ       0.007533
     35 H15         -3.4980     2.0470     7.5800 hc         1 OAQ       0.007533
     36 H16         -4.5950     0.7710     7.0350 hc         1 OAQ       0.007533
     37 H17         -4.0800     0.8310     8.7260 hc         1 OAQ       0.007533
     38 H18         -2.8920    -0.9170     7.3240 h1         1 OAQ       0.029700
     39 H19         -0.5190    -0.8760     4.0860 hn         1 OAQ       0.271800
     40 H20         -2.0850     1.5070     5.9650 hn         1 OAQ       0.263800
     41 H22          1.6750    -0.0000    -3.2080 ho         1 OAQ       0.399000
@<TRIPOS>BOND
     1     1     2 ar  
     2     1     6 ar  
     3     1    21 1   
     4     2     3 ar  
     5     2    10 1   
     6     3     4 ar  
     7     3    16 1   
     8     4     5 ar  
     9     4    22 1   
    10     5     6 ar  
    11     5    15 1   
    12     6     9 1   
    13     7     8 1   
    14     7    11 1   
    15     7    15 1   
    16     7    23 1   
    17     8     9 1   
    18     8    24 1   
    19     8    25 1   
    20     9    26 1   
    21     9    27 1   
    22    10    20 1   
    23    10    28 1   
    24    10    29 1   
    25    11    17 1   
    26    11    30 1   
    27    11    31 1   
    28    12    14 1   
    29    12    32 1   
    30    12    33 1   
    31    12    34 1   
    32    13    14 1   
    33    13    35 1   
    34    13    36 1   
    35    13    37 1   
    36    14    17 1   
    37    14    38 1   
    38    15    39 1   
    39    16    18 1   
    40    16    19 1   
    41    17    40 1   
    42    20    41 1   
@<TRIPOS>SUBSTRUCTURE
     1 OAQ         1 TEMP              0 ****  ****    0 ROOT
