@<TRIPOS>MOLECULE
molecule
   36    38     1     0     0
SMALL
bcc


@<TRIPOS>ATOM
      1 N1           0.0000     0.0000     0.0000 nb         1 OAW      -0.771000
      2 C2           1.3280     0.0000     0.0000 ca         1 OAW       0.974900
      3 N3           2.0360     0.0000     1.1190 nb         1 OAW      -0.796000
      4 C4           1.4300    -0.0010     2.3010 ca         1 OAW       0.559200
      5 C5           0.0190    -0.0020     2.3450 ca         1 OAW      -0.163200
      6 C6          -0.6840    -0.0010     1.1290 ca         1 OAW       0.540600
      7 N7           1.9950     0.0000    -1.2100 nv         1 OAW      -1.060500
      8 C9          -2.1900    -0.0020     1.1120 c3         1 OAW      -0.137400
      9 N10          2.1560    -0.0010     3.4680 n          1 OAW      -0.401300
     10 C11          1.5000    -0.0020     4.6480 c          1 OAW       0.580200
     11 C12          0.0260    -0.0020     4.6530 cc         1 OAW       0.477900
     12 N13         -0.6340    -0.0020     3.5180 nd         1 OAW      -0.553100
     13 O14          2.1180    -0.0020     5.6970 o          1 OAW      -0.619500
     14 C15         -0.7110    -0.0030     5.9370 cc         1 OAW      -0.355200
     15 C16          4.1480     1.2490     4.1400 c3         1 OAW      -0.103600
     16 C17          4.1490    -1.2500     4.1400 c3         1 OAW      -0.103600
     17 C18         -2.0790    -0.0090     6.0930 cd         1 OAW      -0.064300
     18 N19         -2.3340    -0.0080     7.4160 na         1 OAW      -0.039600
     19 N20         -1.1120    -0.0020     8.1000 nd         1 OAW      -0.519800
     20 C21         -0.1410    -0.0050     7.2280 cc         1 OAW       0.376200
     21 HN7          2.2300     0.8670    -1.6520 hn         1 OAW       0.448800
     22 HN7A         2.2300    -0.8670    -1.6520 hn         1 OAW       0.448800
     23 H8           3.9560     0.0010     2.4010 h1         1 OAW       0.097700
     24 H9          -2.5580     0.8820     1.6200 hc         1 OAW       0.062700
     25 H9A         -2.5400    -0.0010     0.0870 hc         1 OAW       0.062700
     26 H9B         -2.5560    -0.8870     1.6180 hc         1 OAW       0.062700
     27 H16          5.0880     1.5490     3.6920 hc         1 OAW       0.048533
     28 H16A         3.4240     2.0470     4.0270 hc         1 OAW       0.048533
     29 H16B         4.2980     1.0450     5.1930 hc         1 OAW       0.048533
     30 H17          5.0890    -1.5480     3.6920 hc         1 OAW       0.048533
     31 H17A         3.4170    -2.0360     4.0010 hc         1 OAW       0.048533
     32 H17B         4.2940    -1.0740     5.1990 hc         1 OAW       0.048533
     33 H18         -2.8160    -0.0140     5.2980 h4         1 OAW       0.186000
     34 H21          0.9180    -0.0010     7.4550 h4         1 OAW       0.084100
     35 HN19        -3.2410    -0.0100     7.8380 hn         1 OAW       0.332700
     36 C8           3.6200     0.0000     3.4310 c3         1 OAW       0.100700
@<TRIPOS>BOND
     1     1     6 ar
     2     1     2 ar
     3     7     2 1
     4     2     3 ar
     5     3     4 ar
     6     5     4 ar
     7     4     9 1
     8     6     5 ar
     9     5    12 1
    10     8     6 1
    11     7    21 1
    12     7    22 1
    13     9    36 1
    14    15    36 1
    15    36    16 1
    16    36    23 1
    17     8    24 1
    18     8    25 1
    19     8    26 1
    20     9    10 1
    21    11    10 1
    22    10    13 2
    23    12    11 2
    24    11    14 1
    25    17    14 2
    26    14    20 1
    27    15    27 1
    28    15    28 1
    29    15    29 1
    30    16    30 1
    31    16    31 1
    32    16    32 1
    33    17    18 1
    34    17    33 1
    35    18    19 1
    36    19    20 2
    37    20    34 1
    38    18    35 1
@<TRIPOS>SUBSTRUCTURE
     1 OAW         1 TEMP              0 ****  ****    0 ROOT
