@<TRIPOS>MOLECULE
molecule
   52    56     1     0     0
SMALL
bcc


@<TRIPOS>ATOM
      1 C01          0.0000     0.0000     0.0000 ca         1 OB1      -0.153500
      2 C02          1.3890     0.0000     0.0000 ca         1 OB1       0.111100
      3 C03          2.0880     0.0000     1.2000 ca         1 OB1      -0.153500
      4 C04          1.4050    -0.0010     2.3980 ca         1 OB1      -0.096500
      5 C05          0.0080    -0.0010     2.4020 ca         1 OB1      -0.051800
      6 C06         -0.6920     0.0050     1.1920 ca         1 OB1      -0.096500
      7 O01          2.0670    -0.0000    -1.1780 oh         1 OB1      -0.521100
      8 C07         -0.7270     0.0040     3.6790 ce         1 OB1      -0.081400
      9 C08         -1.5390    -0.9720     4.1580 cf         1 OB1      -0.087400
     10 C09         -2.0450    -0.4700     5.5140 c3         1 OB1       0.173300
     11 C10         -1.8650    -2.2530     3.5090 ca         1 OB1      -0.047800
     12 C11         -0.7270     1.1090     4.7400 c3         1 OB1       0.193300
     13 C12         -0.8660    -3.2080     3.2970 ca         1 OB1      -0.099000
     14 C13         -1.1770    -4.4040     2.6880 ca         1 OB1      -0.153000
     15 C14         -2.4800    -4.6620     2.2850 ca         1 OB1       0.109100
     16 C15         -3.4770    -3.7170     2.4930 ca         1 OB1      -0.153000
     17 C16         -3.1780    -2.5200     3.1060 ca         1 OB1      -0.099000
     18 O02         -2.7810    -5.8430     1.6850 oh         1 OB1      -0.521100
     19 C17         -2.1320     1.7770     4.6230 c3         1 OB1      -0.244900
     20 C18         -3.0650     0.6600     5.1700 c3         1 OB1      -0.071400
     21 S01         -2.2300     3.2660     5.6530 s6         1 OB1       1.338900
     22 O03         -0.8910     0.3180     5.9610 os         1 OB1      -0.380600
     23 N01         -3.7870     3.7970     5.4660 nu         1 OB1      -0.782500
     24 O04         -2.1380     2.9270     7.0310 o          1 OB1      -0.617300
     25 O05         -1.4350     4.3070     5.1010 o          1 OB1      -0.617300
     26 C19         -4.2320     4.2270     4.2140 ca         1 OB1       0.112600
     27 C20         -3.8350     5.4630     3.7200 ca         1 OB1      -0.121500
     28 C21         -4.2760     5.8840     2.4820 ca         1 OB1      -0.125000
     29 C22         -5.1150     5.0780     1.7340 ca         1 OB1      -0.121000
     30 C23         -5.5140     3.8470     2.2230 ca         1 OB1      -0.125000
     31 C24         -5.0700     3.4160     3.4580 ca         1 OB1      -0.121500
     32 H1          -0.5410     0.0020    -0.9390 ha         1 OB1       0.143000
     33 H2           3.1710     0.0000     1.1960 ha         1 OB1       0.143000
     34 H3           1.9500    -0.0030     3.3340 ha         1 OB1       0.139500
     35 H4          -1.7750     0.0050     1.1900 ha         1 OB1       0.139500
     36 H5           2.2220    -0.8890    -1.4510 ho         1 OB1       0.420000
     37 H6          -2.3910    -1.2300     6.2040 h1         1 OB1       0.115700
     38 H7           0.1220     1.7820     4.7260 h1         1 OB1       0.118700
     39 H8           0.1510    -3.0070     3.6110 ha         1 OB1       0.138000
     40 H9          -0.4030    -5.1440     2.5240 ha         1 OB1       0.143000
     41 H10         -4.4930    -3.9250     2.1780 ha         1 OB1       0.143000
     42 H11         -3.9560    -1.7840     3.2670 ha         1 OB1       0.138000
     43 H12         -2.6770    -5.7570     0.7520 ho         1 OB1       0.420000
     44 H13         -2.3670     2.0040     3.5900 h1         1 OB1       0.117700
     45 H14         -3.5870     0.9940     6.0590 hc         1 OB1       0.063700
     46 H15         -3.7630     0.3330     4.4090 hc         1 OB1       0.063700
     47 H16         -4.3940     3.8560     6.2600 hn         1 OB1       0.465800
     48 H17         -3.1780     6.0950     4.3050 ha         1 OB1       0.144500
     49 H18         -3.9660     6.8470     2.0960 ha         1 OB1       0.135500
     50 H19         -5.4620     5.4120     0.7630 ha         1 OB1       0.133000
     51 H20         -6.1690     3.2170     1.6330 ha         1 OB1       0.135500
     52 H21         -5.3830     2.4520     3.8410 ha         1 OB1       0.144500
@<TRIPOS>BOND
     1    24    21 2
     2    21    23 1
     3    21    25 2
     4    21    19 1
     5    23    26 1
     6    27    26 ar
     7    27    28 ar
     8    26    31 ar
     9    20    19 1
    10    20    10 1
    11    28    29 ar
    12    19    12 1
    13    31    30 ar
    14    29    30 ar
    15    10    22 1
    16    10     9 1
    17    12    22 1
    18    12     8 1
    19    17    16 ar
    20    17    11 ar
    21     9     8 2
    22     9    11 1
    23    16    15 ar
    24     8     5 1
    25    11    13 ar
    26     5     6 ar
    27     5     4 ar
    28     6     1 ar
    29    15    18 1
    30    15    14 ar
    31     4     3 ar
    32     1     2 ar
    33    13    14 ar
    34     3     2 ar
    35     2     7 1
    36     1    32 1
    37     3    33 1
    38     4    34 1
    39     6    35 1
    40     7    36 1
    41    10    37 1
    42    12    38 1
    43    13    39 1
    44    14    40 1
    45    16    41 1
    46    17    42 1
    47    18    43 1
    48    19    44 1
    49    20    45 1
    50    20    46 1
    51    23    47 1
    52    27    48 1
    53    28    49 1
    54    29    50 1
    55    30    51 1
    56    31    52 1
@<TRIPOS>SUBSTRUCTURE
     1 OB1         1 TEMP              0 ****  ****    0 ROOT
