@<TRIPOS>MOLECULE
OB1
   52    56     1     0     0
SMALL
bcc


@<TRIPOS>ATOM
      1 C01          0.0000     0.0000     0.0000 ca         1 OB1      -0.138000
      2 C02          1.3890     0.0000     0.0000 ca         1 OB1       0.129100
      3 C03          2.0880     0.0000     1.2000 ca         1 OB1      -0.138000
      4 C04          1.4050    -0.0010     2.3980 ca         1 OB1      -0.067000
      5 C05          0.0080    -0.0010     2.4020 ca         1 OB1      -0.049800
      6 C06         -0.6920     0.0050     1.1920 ca         1 OB1      -0.067000
      7 O01          2.0670    -0.0000    -1.1780 oh         1 OB1      -0.500100
      8 C07         -0.7270     0.0040     3.6790 ce         1 OB1      -0.098400
      9 C08         -1.5390    -0.9720     4.1580 cf         1 OB1      -0.095400
     10 C09         -2.0450    -0.4700     5.5140 c3         1 OB1       0.233300
     11 C10         -1.8650    -2.2530     3.5090 ca         1 OB1      -0.046800
     12 C11         -0.7270     1.1090     4.7400 c3         1 OB1       0.269300
     13 C12         -0.8660    -3.2080     3.2970 ca         1 OB1      -0.069000
     14 C13         -1.1770    -4.4040     2.6880 ca         1 OB1      -0.138000
     15 C14         -2.4800    -4.6620     2.2850 ca         1 OB1       0.127100
     16 C15         -3.4770    -3.7170     2.4930 ca         1 OB1      -0.138000
     17 C16         -3.1780    -2.5200     3.1060 ca         1 OB1      -0.069000
     18 O02         -2.7810    -5.8430     1.6850 oh         1 OB1      -0.500100
     19 C17         -2.1320     1.7770     4.6230 c3         1 OB1      -0.074900
     20 C18         -3.0650     0.6600     5.1700 c3         1 OB1      -0.018400
     21 S01         -2.2300     3.2660     5.6530 s6         1 OB1       0.959900
     22 O03         -0.8910     0.3180     5.9610 os         1 OB1      -0.378600
     23 N01         -3.7870     3.7970     5.4660 nu         1 OB1      -0.431500
     24 O04         -2.1380     2.9270     7.0310 o          1 OB1      -0.572300
     25 O05         -1.4350     4.3070     5.1010 o          1 OB1      -0.572300
     26 C19         -4.2320     4.2270     4.2140 ca         1 OB1       0.040600
     27 C20         -3.8350     5.4630     3.7200 ca         1 OB1      -0.103500
     28 C21         -4.2760     5.8840     2.4820 ca         1 OB1      -0.094500
     29 C22         -5.1150     5.0780     1.7340 ca         1 OB1      -0.099000
     30 C23         -5.5140     3.8470     2.2230 ca         1 OB1      -0.094500
     31 C24         -5.0700     3.4160     3.4580 ca         1 OB1      -0.103500
     32 H1          -0.5410     0.0020    -0.9390 ha         1 OB1       0.115000
     33 H2           3.1710     0.0000     1.1960 ha         1 OB1       0.115000
     34 H3           1.9500    -0.0030     3.3340 ha         1 OB1       0.109000
     35 H4          -1.7750     0.0050     1.1900 ha         1 OB1       0.109000
     36 H5           2.2220    -0.8890    -1.4510 ho         1 OB1       0.403000
     37 H6          -2.3910    -1.2300     6.2040 h1         1 OB1       0.064700
     38 H7           0.1220     1.7820     4.7260 h1         1 OB1       0.071700
     39 H8           0.1510    -3.0070     3.6110 ha         1 OB1       0.108500
     40 H9          -0.4030    -5.1440     2.5240 ha         1 OB1       0.115500
     41 H10         -4.4930    -3.9250     2.1780 ha         1 OB1       0.115500
     42 H11         -3.9560    -1.7840     3.2670 ha         1 OB1       0.108500
     43 H12         -2.6770    -5.7570     0.7520 ho         1 OB1       0.403000
     44 H13         -2.3670     2.0040     3.5900 h1         1 OB1       0.091700
     45 H14         -3.5870     0.9940     6.0590 hc         1 OB1       0.033200
     46 H15         -3.7630     0.3330     4.4090 hc         1 OB1       0.033200
     47 H16         -4.3940     3.8560     6.2600 hn         1 OB1       0.352800
     48 H17         -3.1780     6.0950     4.3050 ha         1 OB1       0.118000
     49 H18         -3.9660     6.8470     2.0960 ha         1 OB1       0.105000
     50 H19         -5.4620     5.4120     0.7630 ha         1 OB1       0.103000
     51 H20         -6.1690     3.2170     1.6330 ha         1 OB1       0.105000
     52 H21         -5.3830     2.4520     3.8410 ha         1 OB1       0.118000
@<TRIPOS>BOND
     1     1     2 ar  
     2     1     6 ar  
     3     1    32 1   
     4     2     3 ar  
     5     2     7 1   
     6     3     4 ar  
     7     3    33 1   
     8     4     5 ar  
     9     4    34 1   
    10     5     6 ar  
    11     5     8 1   
    12     6    35 1   
    13     7    36 1   
    14     8     9 2   
    15     8    12 1   
    16     9    10 1   
    17     9    11 1   
    18    10    20 1   
    19    10    22 1   
    20    10    37 1   
    21    11    13 ar  
    22    11    17 ar  
    23    12    19 1   
    24    12    22 1   
    25    12    38 1   
    26    13    14 ar  
    27    13    39 1   
    28    14    15 ar  
    29    14    40 1   
    30    15    16 ar  
    31    15    18 1   
    32    16    17 ar  
    33    16    41 1   
    34    17    42 1   
    35    18    43 1   
    36    19    20 1   
    37    19    21 1   
    38    19    44 1   
    39    20    45 1   
    40    20    46 1   
    41    21    23 1   
    42    21    24 2   
    43    21    25 2   
    44    23    26 1   
    45    23    47 1   
    46    26    27 ar  
    47    26    31 ar  
    48    27    28 ar  
    49    27    48 1   
    50    28    29 ar  
    51    28    49 1   
    52    29    30 ar  
    53    29    50 1   
    54    30    31 ar  
    55    30    51 1   
    56    31    52 1   
@<TRIPOS>SUBSTRUCTURE
     1 OB1         1 TEMP              0 ****  ****    0 ROOT
