@<TRIPOS>MOLECULE
molecule
   55    59     1     0     0
SMALL
bcc


@<TRIPOS>ATOM
      1 C01          0.0000     0.0000     0.0000 ca         1 OB2      -0.098500
      2 C02          1.3780     0.0000     0.0000 ca         1 OB2      -0.153500
      3 C03          2.0750     0.0000     1.2000 ca         1 OB2       0.109100
      4 O01          3.4340    -0.0010     1.1950 oh         1 OB2      -0.522100
      5 C04          1.3880     0.0010     2.4080 ca         1 OB2      -0.153500
      6 C05          0.0100     0.0020     2.4180 ca         1 OB2      -0.098500
      7 C06         -0.6960     0.0010     1.2130 ca         1 OB2      -0.048800
      8 C07         -2.1700     0.0080     1.2180 ce         1 OB2      -0.087400
      9 C08         -2.9930    -0.9690     0.7630 cf         1 OB2      -0.077400
     10 C09         -2.5960    -2.2530     0.1600 ca         1 OB2      -0.054800
     11 C10         -1.9120    -3.2050     0.9220 ca         1 OB2      -0.096000
     12 C11         -1.5440    -4.4050     0.3530 ca         1 OB2      -0.153000
     13 C12         -1.8510    -4.6700    -0.9750 ca         1 OB2       0.112100
     14 O02         -1.4880    -5.8550    -1.5310 oh         1 OB2      -0.522100
     15 C13         -2.5310    -3.7280    -1.7370 ca         1 OB2      -0.153000
     16 C14         -2.9080    -2.5270    -1.1750 ca         1 OB2      -0.096000
     17 C15         -4.4190    -0.4640     1.0030 c3         1 OB2       0.192300
     18 O03         -4.2270     0.9800     0.8330 os         1 OB2      -0.382600
     19 C16         -3.0840     1.1160     1.7470 c3         1 OB2       0.172300
     20 C17         -3.6870     0.5500     3.0710 c3         1 OB2      -0.071400
     21 C18         -4.6290    -0.5590     2.5460 c3         1 OB2      -0.243900
     22 S01         -6.3540    -0.2110     2.9880 s6         1 OB2       1.344900
     23 O04         -6.6680     1.1520     2.7360 o          1 OB2      -0.616800
     24 O05         -7.2040    -1.2540     2.5340 o          1 OB2      -0.616800
     25 N01         -6.3920    -0.3410     4.6380 nh         1 OB2      -0.669900
     26 C19         -6.6380     0.8450     5.4610 c3         1 OB2       0.216100
     27 C20         -6.1910    -1.5830     5.2450 ca         1 OB2       0.147600
     28 C21         -6.4830    -2.7520     4.5530 ca         1 OB2      -0.180000
     29 C22         -6.2820    -3.9780     5.1570 ca         1 OB2      -0.101500
     30 C23         -5.7920    -4.0420     6.4490 ca         1 OB2      -0.152000
     31 C24         -5.5000    -2.8810     7.1390 ca         1 OB2      -0.101500
     32 C25         -5.6930    -1.6510     6.5400 ca         1 OB2      -0.180000
     33 H1          -0.5430    -0.0000    -0.9380 ha         1 OB2       0.138500
     34 H2           1.9180    -0.0010    -0.9390 ha         1 OB2       0.143000
     35 H3           3.7490     0.8880     1.1980 ho         1 OB2       0.421000
     36 H4           1.9360     0.0010     3.3430 ha         1 OB2       0.143000
     37 H5          -0.5250     0.0030     3.3600 ha         1 OB2       0.138500
     38 H6          -1.6720    -2.9990     1.9580 ha         1 OB2       0.139500
     39 H7          -1.0140    -5.1430     0.9430 ha         1 OB2       0.144000
     40 H8          -0.6170    -5.7810    -1.8860 ho         1 OB2       0.421000
     41 H9          -2.7700    -3.9400    -2.7720 ha         1 OB2       0.144000
     42 H10         -3.4380    -1.7930    -1.7700 ha         1 OB2       0.139500
     43 H11         -5.1910    -0.9110     0.3880 h1         1 OB2       0.118700
     44 H12         -2.6470     2.1050     1.8080 h1         1 OB2       0.113700
     45 H13         -4.2460     1.3140     3.5980 hc         1 OB2       0.065200
     46 H14         -2.9120     0.1320     3.7000 hc         1 OB2       0.065200
     47 H15         -4.3230    -1.5290     2.9170 h1         1 OB2       0.119700
     48 H16         -7.0400     1.6380     4.8410 h1         1 OB2       0.053033
     49 H17         -7.3480     0.6030     6.2420 h1         1 OB2       0.053033
     50 H18         -5.7080     1.1740     5.9080 h1         1 OB2       0.053033
     51 H19         -6.8670    -2.7020     3.5420 ha         1 OB2       0.162000
     52 H20         -6.5090    -4.8900     4.6190 ha         1 OB2       0.134000
     53 H21         -5.6370    -5.0050     6.9210 ha         1 OB2       0.131000
     54 H22         -5.1140    -2.9350     8.1500 ha         1 OB2       0.134000
     55 H23         -5.4650    -0.7420     7.0820 ha         1 OB2       0.162000
@<TRIPOS>BOND
     1     4     3 1
     2     3     2 ar
     3     3     5 ar
     4     2     1 ar
     5     5     6 ar
     6     1     7 ar
     7     6     7 ar
     8     7     8 1
     9     8     9 2
    10     8    19 1
    11    15    16 ar
    12    15    13 ar
    13    14    13 1
    14    16    10 ar
    15    13    12 ar
    16    10     9 1
    17    10    11 ar
    18    12    11 ar
    19     9    17 1
    20    19    18 1
    21    19    20 1
    22    18    17 1
    23    17    21 1
    24    20    21 1
    25    21    22 1
    26    22    23 2
    27    22    25 1
    28    22    24 2
    29    26    25 1
    30    25    27 1
    31    28    27 ar
    32    28    29 ar
    33    27    32 ar
    34    29    30 ar
    35    32    31 ar
    36    30    31 ar
    37     1    33 1
    38     2    34 1
    39     4    35 1
    40     5    36 1
    41     6    37 1
    42    11    38 1
    43    12    39 1
    44    14    40 1
    45    15    41 1
    46    16    42 1
    47    17    43 1
    48    19    44 1
    49    20    45 1
    50    20    46 1
    51    21    47 1
    52    26    48 1
    53    26    49 1
    54    26    50 1
    55    28    51 1
    56    29    52 1
    57    30    53 1
    58    31    54 1
    59    32    55 1
@<TRIPOS>SUBSTRUCTURE
     1 OB2         1 TEMP              0 ****  ****    0 ROOT
