@<TRIPOS>MOLECULE
OB2
   55    59     1     0     0
SMALL
bcc


@<TRIPOS>ATOM
      1 C01          0.0000     0.0000     0.0000 ca         1 OB2      -0.069000
      2 C02          1.3780     0.0000     0.0000 ca         1 OB2      -0.138000
      3 C03          2.0750     0.0000     1.2000 ca         1 OB2       0.128100
      4 O01          3.4340    -0.0010     1.1950 oh         1 OB2      -0.501100
      5 C04          1.3880     0.0010     2.4080 ca         1 OB2      -0.138000
      6 C05          0.0100     0.0020     2.4180 ca         1 OB2      -0.069000
      7 C06         -0.6960     0.0010     1.2130 ca         1 OB2      -0.047800
      8 C07         -2.1700     0.0080     1.2180 ce         1 OB2      -0.095400
      9 C08         -2.9930    -0.9690     0.7630 cf         1 OB2      -0.095400
     10 C09         -2.5960    -2.2530     0.1600 ca         1 OB2      -0.053800
     11 C10         -1.9120    -3.2050     0.9220 ca         1 OB2      -0.066000
     12 C11         -1.5440    -4.4050     0.3530 ca         1 OB2      -0.137500
     13 C12         -1.8510    -4.6700    -0.9750 ca         1 OB2       0.130100
     14 O02         -1.4880    -5.8550    -1.5310 oh         1 OB2      -0.500100
     15 C13         -2.5310    -3.7280    -1.7370 ca         1 OB2      -0.137500
     16 C14         -2.9080    -2.5270    -1.1750 ca         1 OB2      -0.066000
     17 C15         -4.4190    -0.4640     1.0030 c3         1 OB2       0.267300
     18 O03         -4.2270     0.9800     0.8330 os         1 OB2      -0.381600
     19 C16         -3.0840     1.1160     1.7470 c3         1 OB2       0.232300
     20 C17         -3.6870     0.5500     3.0710 c3         1 OB2      -0.020400
     21 C18         -4.6290    -0.5590     2.5460 c3         1 OB2      -0.074900
     22 S01         -6.3540    -0.2110     2.9880 s6         1 OB2       0.975900
     23 O04         -6.6680     1.1520     2.7360 o          1 OB2      -0.572800
     24 O05         -7.2040    -1.2540     2.5340 o          1 OB2      -0.572800
     25 N01         -6.3920    -0.3410     4.6380 nh         1 OB2      -0.350900
     26 C19         -6.6380     0.8450     5.4610 c3         1 OB2       0.242100
     27 C20         -6.1910    -1.5830     5.2450 ca         1 OB2       0.078600
     28 C21         -6.4830    -2.7520     4.5530 ca         1 OB2      -0.179000
     29 C22         -6.2820    -3.9780     5.1570 ca         1 OB2      -0.068000
     30 C23         -5.7920    -4.0420     6.4490 ca         1 OB2      -0.133000
     31 C24         -5.5000    -2.8810     7.1390 ca         1 OB2      -0.068000
     32 C25         -5.6930    -1.6510     6.5400 ca         1 OB2      -0.179000
     33 H1          -0.5430    -0.0000    -0.9380 ha         1 OB2       0.109000
     34 H2           1.9180    -0.0010    -0.9390 ha         1 OB2       0.115500
     35 H3           3.7490     0.8880     1.1980 ho         1 OB2       0.404000
     36 H4           1.9360     0.0010     3.3430 ha         1 OB2       0.115500
     37 H5          -0.5250     0.0030     3.3600 ha         1 OB2       0.109000
     38 H6          -1.6720    -2.9990     1.9580 ha         1 OB2       0.109000
     39 H7          -1.0140    -5.1430     0.9430 ha         1 OB2       0.116000
     40 H8          -0.6170    -5.7810    -1.8860 ho         1 OB2       0.404000
     41 H9          -2.7700    -3.9400    -2.7720 ha         1 OB2       0.116000
     42 H10         -3.4380    -1.7930    -1.7700 ha         1 OB2       0.109000
     43 H11         -5.1910    -0.9110     0.3880 h1         1 OB2       0.071700
     44 H12         -2.6470     2.1050     1.8080 h1         1 OB2       0.062700
     45 H13         -4.2460     1.3140     3.5980 hc         1 OB2       0.035200
     46 H14         -2.9120     0.1320     3.7000 hc         1 OB2       0.035200
     47 H15         -4.3230    -1.5290     2.9170 h1         1 OB2       0.093700
     48 H16         -7.0400     1.6380     4.8410 h1         1 OB2       0.016033
     49 H17         -7.3480     0.6030     6.2420 h1         1 OB2       0.016033
     50 H18         -5.7080     1.1740     5.9080 h1         1 OB2       0.016033
     51 H19         -6.8670    -2.7020     3.5420 ha         1 OB2       0.148500
     52 H20         -6.5090    -4.8900     4.6190 ha         1 OB2       0.102000
     53 H21         -5.6370    -5.0050     6.9210 ha         1 OB2       0.103000
     54 H22         -5.1140    -2.9350     8.1500 ha         1 OB2       0.102000
     55 H23         -5.4650    -0.7420     7.0820 ha         1 OB2       0.148500
@<TRIPOS>BOND
     1     1     2 ar  
     2     1     7 ar  
     3     1    33 1   
     4     2     3 ar  
     5     2    34 1   
     6     3     4 1   
     7     3     5 ar  
     8     4    35 1   
     9     5     6 ar  
    10     5    36 1   
    11     6     7 ar  
    12     6    37 1   
    13     7     8 1   
    14     8     9 2   
    15     8    19 1   
    16     9    10 1   
    17     9    17 1   
    18    10    11 ar  
    19    10    16 ar  
    20    11    12 ar  
    21    11    38 1   
    22    12    13 ar  
    23    12    39 1   
    24    13    14 1   
    25    13    15 ar  
    26    14    40 1   
    27    15    16 ar  
    28    15    41 1   
    29    16    42 1   
    30    17    18 1   
    31    17    21 1   
    32    17    43 1   
    33    18    19 1   
    34    19    20 1   
    35    19    44 1   
    36    20    21 1   
    37    20    45 1   
    38    20    46 1   
    39    21    22 1   
    40    21    47 1   
    41    22    23 2   
    42    22    24 2   
    43    22    25 1   
    44    25    26 1   
    45    25    27 1   
    46    26    48 1   
    47    26    49 1   
    48    26    50 1   
    49    27    28 ar  
    50    27    32 ar  
    51    28    29 ar  
    52    28    51 1   
    53    29    30 ar  
    54    29    52 1   
    55    30    31 ar  
    56    30    53 1   
    57    31    32 ar  
    58    31    54 1   
    59    32    55 1   
@<TRIPOS>SUBSTRUCTURE
     1 OB2         1 TEMP              0 ****  ****    0 ROOT
