@<TRIPOS>MOLECULE
molecule
   55    59     1     0     0
SMALL
bcc


@<TRIPOS>ATOM
      1 C01          0.0000     0.0000     0.0000 ca         1 OB3      -0.153000
      2 C02          1.3890     0.0000     0.0000 ca         1 OB3       0.111100
      3 C03          2.0880     0.0000     1.2010 ca         1 OB3      -0.153000
      4 C04          1.4060     0.0010     2.3980 ca         1 OB3      -0.096000
      5 C05          0.0090     0.0020     2.4030 ca         1 OB3      -0.052800
      6 C06         -0.6910     0.0020     1.1930 ca         1 OB3      -0.096000
      7 O01          2.0660    -0.0010    -1.1780 oh         1 OB3      -0.522100
      8 C07         -0.7270     0.0020     3.6800 ce         1 OB3      -0.076400
      9 C08         -0.7360     0.9850     4.6160 cf         1 OB3      -0.091400
     10 C09         -1.6510     0.4860     5.7390 c3         1 OB3       0.170300
     11 C10         -0.0130     2.2680     4.5640 ca         1 OB3      -0.046800
     12 C11         -1.6390    -1.1020     4.2200 c3         1 OB3       0.192300
     13 C12         -0.3370     3.2150     3.5880 ca         1 OB3      -0.099500
     14 C13          0.3410     4.4130     3.5430 ca         1 OB3      -0.153000
     15 C14          1.3450     4.6810     4.4650 ca         1 OB3       0.108100
     16 C15          1.6700     3.7430     5.4360 ca         1 OB3      -0.153000
     17 C16          0.9940     2.5450     5.4930 ca         1 OB3      -0.099500
     18 O02          2.0120     5.8640     4.4150 oh         1 OB3      -0.522100
     19 C17         -0.8350    -1.7630     5.3820 c3         1 OB3      -0.252900
     20 C18         -0.8390    -0.6360     6.4580 c3         1 OB3      -0.069400
     21 S01         -1.6800    -3.2480     5.9910 s6         1 OB3       1.339900
     22 O03         -2.6140    -0.3100     4.9720 os         1 OB3      -0.382600
     23 N01         -0.7760    -3.7340     7.2910 nh         1 OB3      -0.690900
     24 O04         -2.9430    -2.9120     6.5480 o          1 OB3      -0.613300
     25 O05         -1.5510    -4.3140     5.0580 o          1 OB3      -0.613300
     26 C19          0.2860    -4.6240     7.1110 ca         1 OB3       0.149600
     27 C20         -1.0900    -3.2300     8.6300 c3         1 OB3       0.219100
     28 C21          1.5400    -4.1480     6.7450 ca         1 OB3       0.015400
     29 C22          2.5870    -5.0320     6.5680 ca         1 OB3      -0.114000
     30 C23          2.3880    -6.3880     6.7540 ca         1 OB3      -0.114000
     31 C24          1.1430    -6.8650     7.1170 ca         1 OB3      -0.117000
     32 C25          0.0920    -5.9860     7.3020 ca         1 OB3      -0.095000
     33 Cl1          1.7890    -2.4470     6.5110 cl         1 OB3      -0.111400
     34 H1          -0.5410    -0.0000    -0.9390 ha         1 OB3       0.143000
     35 H2           3.1720    -0.0010     1.1950 ha         1 OB3       0.143000
     36 H3           1.9520     0.0010     3.3340 ha         1 OB3       0.139000
     37 H4          -1.7740     0.0020     1.1930 ha         1 OB3       0.139000
     38 H5           2.2230     0.8870    -1.4520 ho         1 OB3       0.421000
     39 H6          -2.0770     1.2500     6.3790 h1         1 OB3       0.111700
     40 H7          -2.0540    -1.7790     3.4830 h1         1 OB3       0.116700
     41 H8          -1.1200     3.0070     2.8680 ha         1 OB3       0.138500
     42 H9           0.0910     5.1480     2.7870 ha         1 OB3       0.142500
     43 H10          2.4520     3.9580     6.1540 ha         1 OB3       0.142500
     44 H11          1.2480     1.8140     6.2510 ha         1 OB3       0.138500
     45 H12          1.5660     6.4990     4.9520 ho         1 OB3       0.420000
     46 H13          0.1760    -1.9930     5.0680 h1         1 OB3       0.129700
     47 H14         -1.3440    -0.9630     7.3580 hc         1 OB3       0.062700
     48 H15          0.1700    -0.3060     6.6750 hc         1 OB3       0.062700
     49 H16         -2.0850    -2.8010     8.6300 h1         1 OB3       0.051033
     50 H17         -0.3700    -2.4700     8.9080 h1         1 OB3       0.051033
     51 H18         -1.0490    -4.0450     9.3420 h1         1 OB3       0.051033
     52 H19          3.5650    -4.6630     6.2830 ha         1 OB3       0.147000
     53 H20          3.2110    -7.0790     6.6120 ha         1 OB3       0.140000
     54 H21          0.9920    -7.9270     7.2640 ha         1 OB3       0.140000
     55 H22         -0.8840    -6.3600     7.5870 ha         1 OB3       0.150000
@<TRIPOS>BOND
     1     7     2 1
     2     3     2 ar
     3     3     4 ar
     4     2     1 ar
     5    16    17 ar
     6    16    15 ar
     7     4     5 ar
     8    17    11 ar
     9    18    15 1
    10     1     6 ar
    11    15    14 ar
    12     5     6 ar
    13     5     8 1
    14    31    30 ar
    15    31    32 ar
    16    11     9 1
    17    11    13 ar
    18     8     9 2
    19     8    12 1
    20    30    29 ar
    21     9    10 1
    22    14    13 ar
    23    22    12 1
    24    22    10 1
    25    32    26 ar
    26    12    19 1
    27    10    20 1
    28    29    28 ar
    29    26    28 ar
    30    26    23 1
    31    19    20 1
    32    19    21 1
    33    28    33 1
    34    23    27 1
    35    23    21 1
    36    24    21 2
    37    21    25 2
    38     1    34 1
    39     3    35 1
    40     4    36 1
    41     6    37 1
    42     7    38 1
    43    10    39 1
    44    12    40 1
    45    13    41 1
    46    14    42 1
    47    16    43 1
    48    17    44 1
    49    18    45 1
    50    19    46 1
    51    20    47 1
    52    20    48 1
    53    27    49 1
    54    27    50 1
    55    27    51 1
    56    29    52 1
    57    30    53 1
    58    31    54 1
    59    32    55 1
@<TRIPOS>SUBSTRUCTURE
     1 OB3         1 TEMP              0 ****  ****    0 ROOT
