@<TRIPOS>MOLECULE
molecule
   62    66     1     0     0
SMALL
bcc


@<TRIPOS>ATOM
      1 C01          0.0000     0.0000     0.0000 ca         1 OB4      -0.154500
      2 C02          1.3900     0.0000     0.0000 ca         1 OB4       0.111100
      3 C03          2.0880     0.0000     1.2000 ca         1 OB4      -0.154500
      4 C04          1.4070     0.0010     2.3980 ca         1 OB4      -0.097000
      5 C05          0.0090     0.0010     2.4030 ca         1 OB4      -0.050800
      6 C06         -0.6900     0.0060     1.1920 ca         1 OB4      -0.097000
      7 O01          2.0660    -0.0020    -1.1780 oh         1 OB4      -0.522100
      8 C07         -0.7250     0.0030     3.6800 ce         1 OB4      -0.084400
      9 C08         -0.7360     0.9830     4.6160 cf         1 OB4      -0.081400
     10 C09         -1.6510     0.4860     5.7390 c3         1 OB4       0.172300
     11 C10         -0.0140     2.2670     4.5630 ca         1 OB4      -0.051800
     12 C11         -1.6380    -1.1030     4.2200 c3         1 OB4       0.191300
     13 C12         -0.3370     3.2140     3.5870 ca         1 OB4      -0.097500
     14 C13          0.3400     4.4130     3.5420 ca         1 OB4      -0.152500
     15 C14          1.3450     4.6810     4.4640 ca         1 OB4       0.111100
     16 C15          1.6700     3.7430     5.4350 ca         1 OB4      -0.152500
     17 C16          0.9940     2.5440     5.4920 ca         1 OB4      -0.097500
     18 O02          2.0110     5.8640     4.4150 oh         1 OB4      -0.522100
     19 C17         -0.8280    -1.7600     5.3800 c3         1 OB4      -0.245900
     20 C18         -0.8360    -0.6370     6.4540 c3         1 OB4      -0.070400
     21 S01         -1.6650    -3.2500     5.9920 s6         1 OB4       1.343900
     22 O03         -2.6150    -0.3110     4.9710 os         1 OB4      -0.381600
     23 N01         -0.6870    -3.8010     7.2090 nh         1 OB4      -0.667900
     24 O04         -2.8790    -2.9060     6.6450 o          1 OB4      -0.618300
     25 O05         -1.6240    -4.2800     5.0150 o          1 OB4      -0.618300
     26 C19          0.5880    -4.2960     6.9130 ca         1 OB4       0.111600
     27 C20         -1.1570    -3.7700     8.5970 c3         1 OB4       0.226800
     28 C21          1.5900    -4.2550     7.8740 ca         1 OB4      -0.143000
     29 C22          2.8470    -4.7440     7.5810 ca         1 OB4      -0.163500
     30 C23          3.1100    -5.2760     6.3280 ca         1 OB4       0.119100
     31 C24          2.1100    -5.3180     5.3680 ca         1 OB4      -0.163500
     32 C25          0.8500    -4.8360     5.6610 ca         1 OB4      -0.143000
     33 C26         -1.7600    -5.1290     8.9610 c3         1 OB4      -0.107100
     34 O06          4.3490    -5.7570     6.0390 os         1 OB4      -0.330900
     35 C27          4.5500    -6.2910     4.7290 c3         1 OB4       0.129700
     36 H1          -0.5410     0.0020    -0.9390 ha         1 OB4       0.143000
     37 H2           3.1710    -0.0000     1.1950 ha         1 OB4       0.143000
     38 H3           1.9530    -0.0010     3.3330 ha         1 OB4       0.140000
     39 H4          -1.7740     0.0060     1.1920 ha         1 OB4       0.140000
     40 H5           2.2200    -0.8920    -1.4510 ho         1 OB4       0.421000
     41 H6          -2.0760     1.2480     6.3800 h1         1 OB4       0.116700
     42 H7          -2.0510    -1.7810     3.4830 h1         1 OB4       0.116700
     43 H8          -1.1200     3.0060     2.8680 ha         1 OB4       0.138000
     44 H9           0.0900     5.1470     2.7860 ha         1 OB4       0.143500
     45 H10          2.4520     3.9580     6.1530 ha         1 OB4       0.143500
     46 H11          1.2480     1.8130     6.2500 ha         1 OB4       0.138000
     47 H12          2.7630     5.7780     3.8540 ho         1 OB4       0.421000
     48 H13          0.1840    -1.9850     5.0640 h1         1 OB4       0.117700
     49 H14          0.1710    -0.3040     6.6730 hc         1 OB4       0.065200
     50 H15         -1.3410    -0.9670     7.3540 hc         1 OB4       0.065200
     51 H16         -1.9110    -3.0000     8.7060 h1         1 OB4       0.061200
     52 H17         -0.3240    -3.5570     9.2560 h1         1 OB4       0.061200
     53 H18          1.3850    -3.8390     8.8530 ha         1 OB4       0.165500
     54 H19          3.6290    -4.7120     8.3300 ha         1 OB4       0.143500
     55 H20          2.3160    -5.7360     4.3900 ha         1 OB4       0.143500
     56 H21          0.0700    -4.8690     4.9100 ha         1 OB4       0.165500
     57 H22         -0.9690    -5.8100     9.2500 hc         1 OB4       0.045700
     58 H23         -2.4520    -5.0080     9.7860 hc         1 OB4       0.045700
     59 H24         -2.2870    -5.5320     8.1040 hc         1 OB4       0.045700
     60 H25          5.5720    -6.6360     4.6320 h1         1 OB4       0.041367
     61 H26          3.8720    -7.1210     4.5690 h1         1 OB4       0.041367
     62 H27          4.3580    -5.5210     3.9920 h1         1 OB4       0.041367
@<TRIPOS>BOND
     1    25    21 2
     2    33    27 1
     3    32    31 ar
     4    32    26 ar
     5    21    24 2
     6    21    23 1
     7    21    19 1
     8    31    30 ar
     9    23    26 1
    10    23    27 1
    11    20    19 1
    12    20    10 1
    13    26    28 ar
    14    19    12 1
    15    30    34 1
    16    30    29 ar
    17    34    35 1
    18    28    29 ar
    19    10    22 1
    20    10     9 1
    21    12    22 1
    22    12     8 1
    23    17    16 ar
    24    17    11 ar
    25     9     8 2
    26     9    11 1
    27    16    15 ar
    28     8     5 1
    29    11    13 ar
    30     6     5 ar
    31     6     1 ar
    32     5     4 ar
    33    15    18 1
    34    15    14 ar
    35     1     2 ar
    36    13    14 ar
    37     4     3 ar
    38     2     3 ar
    39     2     7 1
    40     1    36 1
    41     3    37 1
    42     4    38 1
    43     6    39 1
    44     7    40 1
    45    10    41 1
    46    12    42 1
    47    13    43 1
    48    14    44 1
    49    16    45 1
    50    17    46 1
    51    18    47 1
    52    19    48 1
    53    20    49 1
    54    20    50 1
    55    27    51 1
    56    27    52 1
    57    28    53 1
    58    29    54 1
    59    31    55 1
    60    32    56 1
    61    33    57 1
    62    33    58 1
    63    33    59 1
    64    35    60 1
    65    35    61 1
    66    35    62 1
@<TRIPOS>SUBSTRUCTURE
     1 OB4         1 TEMP              0 ****  ****    0 ROOT
