@<TRIPOS>MOLECULE
molecule
   62    66     1     0     0
SMALL
bcc


@<TRIPOS>ATOM
      1 C01          0.0000     0.0000     0.0000 ca         1 OB5      -0.154000
      2 C02          1.3900     0.0000     0.0000 ca         1 OB5       0.111100
      3 C03          2.0870     0.0000     1.2010 ca         1 OB5      -0.154000
      4 C04          1.4050     0.0000     2.3980 ca         1 OB5      -0.097000
      5 C05          0.0070    -0.0000     2.4030 ca         1 OB5      -0.052800
      6 C06         -0.6910     0.0000     1.1910 ca         1 OB5      -0.097000
      7 O01          2.0670    -0.0000    -1.1770 oh         1 OB5      -0.520100
      8 C07         -0.7280    -0.0010     3.6800 ce         1 OB5      -0.085400
      9 C08         -0.7430     0.9830     4.6140 cf         1 OB5      -0.079400
     10 C09         -1.6550     0.4820     5.7370 c3         1 OB5       0.192300
     11 C10         -0.0270     2.2690     4.5590 ca         1 OB5      -0.052800
     12 C11         -1.6360    -1.1090     4.2200 c3         1 OB5       0.171300
     13 C12         -0.3560     3.2130     3.5810 ca         1 OB5      -0.096500
     14 C13          0.3170     4.4150     3.5340 ca         1 OB5      -0.152000
     15 C14          1.3190     4.6900     4.4560 ca         1 OB5       0.112100
     16 C15          1.6480     3.7550     5.4290 ca         1 OB5      -0.152000
     17 C16          0.9780     2.5530     5.4890 ca         1 OB5      -0.096500
     18 O02          1.9790     5.8760     4.4050 oh         1 OB5      -0.522100
     19 C17         -0.8290    -1.7650     5.3840 c3         1 OB5      -0.071400
     20 C18         -0.8370    -0.6360     6.4580 c3         1 OB5      -0.253900
     21 S01         -1.6830    -1.1870     7.9650 s6         1 OB5       1.338900
     22 O03         -2.6150    -0.3200     4.9710 os         1 OB5      -0.382600
     23 N01         -0.6770    -2.3360     8.6050 nh         1 OB5      -0.667900
     24 O04         -1.6940    -0.1510     8.9370 o          1 OB5      -0.611300
     25 O05         -2.8690    -1.9000     7.6400 o          1 OB5      -0.611300
     26 C19          0.3980    -1.9520     9.4150 ca         1 OB5       0.133600
     27 C20         -0.9130    -3.7540     8.3250 c3         1 OB5       0.219800
     28 C21          0.9460    -0.6820     9.2870 ca         1 OB5      -0.127000
     29 C22          2.0060    -0.3050    10.0870 ca         1 OB5      -0.157000
     30 C23          2.5250    -1.1930    11.0170 ca         1 OB5       0.119100
     31 C24          1.9790    -2.4620    11.1450 ca         1 OB5      -0.157000
     32 C25          0.9140    -2.8400    10.3500 ca         1 OB5      -0.127000
     33 C26          0.2350    -4.3040     7.4760 c3         1 OB5      -0.119100
     34 O06          3.5690    -0.8200    11.8040 os         1 OB5      -0.328900
     35 C27          4.0540    -1.7850    12.7410 c3         1 OB5       0.129700
     36 H1          -0.5410     0.0000    -0.9390 ha         1 OB5       0.143500
     37 H2           3.1710     0.0000     1.1970 ha         1 OB5       0.143500
     38 H3           1.9510    -0.0000     3.3340 ha         1 OB5       0.139500
     39 H4          -1.7740     0.0000     1.1900 ha         1 OB5       0.139500
     40 H5           2.2230    -0.8900    -1.4490 ho         1 OB5       0.420000
     41 H6          -2.0860     1.2440     6.3760 h1         1 OB5       0.119700
     42 H7          -2.0470    -1.7880     3.4840 h1         1 OB5       0.112700
     43 H8          -1.1370     3.0000     2.8620 ha         1 OB5       0.137500
     44 H9           0.0630     5.1470     2.7770 ha         1 OB5       0.144000
     45 H10          2.4290     3.9750     6.1470 ha         1 OB5       0.144000
     46 H11          1.2360     1.8250     6.2480 ha         1 OB5       0.137500
     47 H12          1.5300     6.5090     4.9400 ho         1 OB5       0.421000
     48 H13          0.1830    -1.9930     5.0710 hc         1 OB5       0.066200
     49 H14         -1.3320    -2.6510     5.7510 hc         1 OB5       0.066200
     50 H15          0.1690    -0.3000     6.6760 h1         1 OB5       0.112700
     51 H16         -1.8460    -3.8650     7.7860 h1         1 OB5       0.069700
     52 H17         -0.9670    -4.3020     9.2570 h1         1 OB5       0.069700
     53 H18          0.5410     0.0120     8.5610 ha         1 OB5       0.135500
     54 H19          2.4330     0.6850     9.9870 ha         1 OB5       0.143000
     55 H20          2.3830    -3.1550    11.8730 ha         1 OB5       0.143000
     56 H21          0.4880    -3.8310    10.4500 ha         1 OB5       0.135500
     57 H22          0.7710    -5.0590     8.0380 hc         1 OB5       0.043367
     58 H23         -0.1640    -4.7440     6.5700 hc         1 OB5       0.043367
     59 H24          0.9120    -3.4980     7.2180 hc         1 OB5       0.043367
     60 H25          4.8810    -1.3630    13.2990 h1         1 OB5       0.041367
     61 H26          4.3900    -2.6670    12.2090 h1         1 OB5       0.041367
     62 H27          3.2580    -2.0570    13.4240 h1         1 OB5       0.041367
@<TRIPOS>BOND
     1    18    15 1
     2    15    14 ar
     3    15    16 ar
     4    14    13 ar
     5    13    11 ar
     6    16    17 ar
     7    17    11 ar
     8    11     9 1
     9     7     2 1
    10     1     2 ar
    11     1     6 ar
    12     2     3 ar
    13     9     8 2
    14     9    10 1
    15     6     5 ar
    16     3     4 ar
    17     5     4 ar
    18     5     8 1
    19     8    12 1
    20    10    22 1
    21    10    20 1
    22    22    12 1
    23    12    19 1
    24    27    33 1
    25    27    23 1
    26    20    19 1
    27    20    21 1
    28    25    21 2
    29    23    21 1
    30    23    26 1
    31    21    24 2
    32    28    26 ar
    33    28    29 ar
    34    26    32 ar
    35    29    30 ar
    36    32    31 ar
    37    30    31 ar
    38    30    34 1
    39    34    35 1
    40     1    36 1
    41     3    37 1
    42     4    38 1
    43     6    39 1
    44     7    40 1
    45    10    41 1
    46    12    42 1
    47    13    43 1
    48    14    44 1
    49    16    45 1
    50    17    46 1
    51    18    47 1
    52    19    48 1
    53    19    49 1
    54    20    50 1
    55    27    51 1
    56    27    52 1
    57    28    53 1
    58    29    54 1
    59    31    55 1
    60    32    56 1
    61    33    57 1
    62    33    58 1
    63    33    59 1
    64    35    60 1
    65    35    61 1
    66    35    62 1
@<TRIPOS>SUBSTRUCTURE
     1 OB5         1 TEMP              0 ****  ****    0 ROOT
