@<TRIPOS>MOLECULE
OB5
   62    66     1     0     0
SMALL
bcc


@<TRIPOS>ATOM
      1 C01          0.0000     0.0000     0.0000 ca         1 OB5      -0.138000
      2 C02          1.3900     0.0000     0.0000 ca         1 OB5       0.129100
      3 C03          2.0870     0.0000     1.2010 ca         1 OB5      -0.138000
      4 C04          1.4050     0.0000     2.3980 ca         1 OB5      -0.067000
      5 C05          0.0070    -0.0000     2.4030 ca         1 OB5      -0.051800
      6 C06         -0.6910     0.0000     1.1910 ca         1 OB5      -0.067000
      7 O01          2.0670    -0.0000    -1.1770 oh         1 OB5      -0.499100
      8 C07         -0.7280    -0.0010     3.6800 ce         1 OB5      -0.093400
      9 C08         -0.7430     0.9830     4.6140 cf         1 OB5      -0.097400
     10 C09         -1.6550     0.4820     5.7370 c3         1 OB5       0.268300
     11 C10         -0.0270     2.2690     4.5590 ca         1 OB5      -0.050800
     12 C11         -1.6360    -1.1090     4.2200 c3         1 OB5       0.231300
     13 C12         -0.3560     3.2130     3.5810 ca         1 OB5      -0.067000
     14 C13          0.3170     4.4150     3.5340 ca         1 OB5      -0.136500
     15 C14          1.3190     4.6900     4.4560 ca         1 OB5       0.130100
     16 C15          1.6480     3.7550     5.4290 ca         1 OB5      -0.136500
     17 C16          0.9780     2.5530     5.4890 ca         1 OB5      -0.067000
     18 O02          1.9790     5.8760     4.4050 oh         1 OB5      -0.501100
     19 C17         -0.8290    -1.7650     5.3840 c3         1 OB5      -0.022400
     20 C18         -0.8370    -0.6360     6.4580 c3         1 OB5      -0.089900
     21 S01         -1.6830    -1.1870     7.9650 s6         1 OB5       0.969900
     22 O03         -2.6150    -0.3200     4.9710 os         1 OB5      -0.380600
     23 N01         -0.6770    -2.3360     8.6050 nh         1 OB5      -0.350900
     24 O04         -1.6940    -0.1510     8.9370 o          1 OB5      -0.569300
     25 O05         -2.8690    -1.9000     7.6400 o          1 OB5      -0.569300
     26 C19          0.3980    -1.9520     9.4150 ca         1 OB5       0.062600
     27 C20         -0.9130    -3.7540     8.3250 c3         1 OB5       0.200800
     28 C21          0.9460    -0.6820     9.2870 ca         1 OB5      -0.110500
     29 C22          2.0060    -0.3050    10.0870 ca         1 OB5      -0.140500
     30 C23          2.5250    -1.1930    11.0170 ca         1 OB5       0.124100
     31 C24          1.9790    -2.4620    11.1450 ca         1 OB5      -0.140500
     32 C25          0.9140    -2.8400    10.3500 ca         1 OB5      -0.110500
     33 C26          0.2350    -4.3040     7.4760 c3         1 OB5      -0.029100
     34 O06          3.5690    -0.8200    11.8040 os         1 OB5      -0.308900
     35 C27          4.0540    -1.7850    12.7410 c3         1 OB5       0.245700
     36 H1          -0.5410     0.0000    -0.9390 ha         1 OB5       0.116000
     37 H2           3.1710     0.0000     1.1970 ha         1 OB5       0.116000
     38 H3           1.9510    -0.0000     3.3340 ha         1 OB5       0.109500
     39 H4          -1.7740     0.0000     1.1900 ha         1 OB5       0.109500
     40 H5           2.2230    -0.8900    -1.4490 ho         1 OB5       0.403000
     41 H6          -2.0860     1.2440     6.3760 h1         1 OB5       0.072700
     42 H7          -2.0470    -1.7880     3.4840 h1         1 OB5       0.061700
     43 H8          -1.1370     3.0000     2.8620 ha         1 OB5       0.108000
     44 H9           0.0630     5.1470     2.7770 ha         1 OB5       0.115500
     45 H10          2.4290     3.9750     6.1470 ha         1 OB5       0.115500
     46 H11          1.2360     1.8250     6.2480 ha         1 OB5       0.108000
     47 H12          1.5300     6.5090     4.9400 ho         1 OB5       0.404000
     48 H13          0.1830    -1.9930     5.0710 hc         1 OB5       0.037700
     49 H14         -1.3320    -2.6510     5.7510 hc         1 OB5       0.037700
     50 H15          0.1690    -0.3000     6.6760 h1         1 OB5       0.091700
     51 H16         -1.8460    -3.8650     7.7860 h1         1 OB5       0.039200
     52 H17         -0.9670    -4.3020     9.2570 h1         1 OB5       0.039200
     53 H18          0.5410     0.0120     8.5610 ha         1 OB5       0.116000
     54 H19          2.4330     0.6850     9.9870 ha         1 OB5       0.117000
     55 H20          2.3830    -3.1550    11.8730 ha         1 OB5       0.117000
     56 H21          0.4880    -3.8310    10.4500 ha         1 OB5       0.116000
     57 H22          0.7710    -5.0590     8.0380 hc         1 OB5       0.009700
     58 H23         -0.1640    -4.7440     6.5700 hc         1 OB5       0.009700
     59 H24          0.9120    -3.4980     7.2180 hc         1 OB5       0.009700
     60 H25          4.8810    -1.3630    13.2990 h1         1 OB5      -0.003300
     61 H26          4.3900    -2.6670    12.2090 h1         1 OB5      -0.003300
     62 H27          3.2580    -2.0570    13.4240 h1         1 OB5      -0.003300
@<TRIPOS>BOND
     1     1     2 ar  
     2     1     6 ar  
     3     1    36 1   
     4     2     3 ar  
     5     2     7 1   
     6     3     4 ar  
     7     3    37 1   
     8     4     5 ar  
     9     4    38 1   
    10     5     6 ar  
    11     5     8 1   
    12     6    39 1   
    13     7    40 1   
    14     8     9 2   
    15     8    12 1   
    16     9    10 1   
    17     9    11 1   
    18    10    20 1   
    19    10    22 1   
    20    10    41 1   
    21    11    13 ar  
    22    11    17 ar  
    23    12    19 1   
    24    12    22 1   
    25    12    42 1   
    26    13    14 ar  
    27    13    43 1   
    28    14    15 ar  
    29    14    44 1   
    30    15    16 ar  
    31    15    18 1   
    32    16    17 ar  
    33    16    45 1   
    34    17    46 1   
    35    18    47 1   
    36    19    20 1   
    37    19    48 1   
    38    19    49 1   
    39    20    21 1   
    40    20    50 1   
    41    21    23 1   
    42    21    24 2   
    43    21    25 2   
    44    23    26 1   
    45    23    27 1   
    46    26    28 ar  
    47    26    32 ar  
    48    27    33 1   
    49    27    51 1   
    50    27    52 1   
    51    28    29 ar  
    52    28    53 1   
    53    29    30 ar  
    54    29    54 1   
    55    30    31 ar  
    56    30    34 1   
    57    31    32 ar  
    58    31    55 1   
    59    32    56 1   
    60    33    57 1   
    61    33    58 1   
    62    33    59 1   
    63    34    35 1   
    64    35    60 1   
    65    35    61 1   
    66    35    62 1   
@<TRIPOS>SUBSTRUCTURE
     1 OB5         1 TEMP              0 ****  ****    0 ROOT
