@<TRIPOS>MOLECULE
OB6
   58    62     1     0     0
SMALL
bcc


@<TRIPOS>ATOM
      1 C01          0.0000     0.0000     0.0000 ca         1 OB6       0.128100
      2 C02          1.3890     0.0000     0.0000 ca         1 OB6      -0.137500
      3 C03          2.0800     0.0000     1.1920 ca         1 OB6      -0.068500
      4 C04          1.3810    -0.0000     2.4030 ca         1 OB6      -0.047800
      5 C05         -0.0170     0.0000     2.3970 ca         1 OB6      -0.068500
      6 C06         -0.6990    -0.0000     1.2010 ca         1 OB6      -0.137500
      7 C07          2.1160    -0.0010     3.6800 ce         1 OB6      -0.094400
      8 O01         -0.6770     0.0060    -1.1780 oh         1 OB6      -0.500100
      9 C08          2.9160     0.9820     4.1620 cf         1 OB6      -0.094400
     10 C09          3.4270     0.4810     5.5160 c3         1 OB6       0.267300
     11 C10          2.1990     0.5660     6.4730 c3         1 OB6      -0.075900
     12 C11          1.2830    -0.5590     5.9210 c3         1 OB6      -0.019400
     13 C12          2.1270    -1.1090     4.7370 c3         1 OB6       0.232300
     14 C13          3.2280     2.2690     3.5170 ca         1 OB6      -0.054800
     15 C14          2.2170     3.2130     3.3090 ca         1 OB6      -0.065500
     16 C15          2.5140     4.4150     2.7040 ca         1 OB6      -0.137500
     17 C16          3.8140     4.6900     2.3010 ca         1 OB6       0.131100
     18 C17          4.8220     3.7560     2.5060 ca         1 OB6      -0.137500
     19 C18          4.5350     2.5540     3.1140 ca         1 OB6      -0.065500
     20 O02          4.1020     5.8770     1.7060 oh         1 OB6      -0.500100
     21 O03          3.4910    -0.9630     5.2650 os         1 OB6      -0.381600
     22 S01          2.6860     0.2220     8.1860 s6         1 OB6       0.975900
     23 N01          1.2770     0.3420     9.0490 nh         1 OB6      -0.350900
     24 C19          0.6410     1.5790     9.1810 ca         1 OB6       0.084600
     25 C20          0.6970    -0.8510     9.6730 c3         1 OB6       0.207800
     26 C21          1.1550    -0.9360    11.1310 c3         1 OB6      -0.012100
     27 C22         -0.7300     1.6360     9.4000 ca         1 OB6      -0.172500
     28 C23         -1.3560     2.8600     9.5290 ca         1 OB6      -0.064500
     29 C24         -0.6200     4.0290     9.4420 ca         1 OB6      -0.065600
     30 C25          0.7460     3.9740     9.2240 ca         1 OB6      -0.064500
     31 C26          1.3780     2.7530     9.0990 ca         1 OB6      -0.172500
     32 Cl1         -1.4100     5.5650     9.6060 cl         1 OB6      -0.030400
     33 O04          3.0720    -1.1370     8.3310 o          1 OB6      -0.571300
     34 O05          3.4970     1.2730     8.6940 o          1 OB6      -0.571300
     35 H1           1.9290     0.0000    -0.9390 ha         1 OB6       0.115500
     36 H2           3.1630    -0.0000     1.1910 ha         1 OB6       0.108500
     37 H3          -0.5630     0.0000     3.3330 ha         1 OB6       0.108500
     38 H4          -1.7830    -0.0000     1.1960 ha         1 OB6       0.115500
     39 H5          -0.8460    -0.8820    -1.4470 ho         1 OB6       0.404000
     40 H6           4.3430     0.9350     5.8750 h1         1 OB6       0.071700
     41 H7           1.7140     1.5320     6.3930 h1         1 OB6       0.093700
     42 H8           0.3420    -0.1540     5.5700 hc         1 OB6       0.035200
     43 H9           1.1210    -1.3260     6.6680 hc         1 OB6       0.035200
     44 H10          1.8650    -2.1000     4.3870 h1         1 OB6       0.062700
     45 H11          1.2020     3.0000     3.6230 ha         1 OB6       0.109000
     46 H12          1.7310     5.1470     2.5430 ha         1 OB6       0.116500
     47 H13          5.8350     3.9760     2.1920 ha         1 OB6       0.116500
     48 H14          5.3220     1.8260     3.2730 ha         1 OB6       0.109000
     49 H15          3.9490     5.8080     0.7780 ho         1 OB6       0.404000
     50 H16          1.0260    -1.7340     9.1390 h1         1 OB6       0.031200
     51 H17         -0.3840    -0.7880     9.6360 h1         1 OB6       0.031200
     52 H18          1.0930    -1.9630    11.4690 hc         1 OB6       0.011700
     53 H19          2.1790    -0.5920    11.2080 hc         1 OB6       0.011700
     54 H20          0.5170    -0.3140    11.7470 hc         1 OB6       0.011700
     55 H21         -1.3070     0.7220     9.4680 ha         1 OB6       0.154000
     56 H22         -2.4250     2.9060     9.7000 ha         1 OB6       0.114000
     57 H23          1.3210     4.8900     9.1580 ha         1 OB6       0.114000
     58 H24          2.4470     2.7100     8.9280 ha         1 OB6       0.154000
@<TRIPOS>BOND
     1     1     2 ar  
     2     1     6 ar  
     3     1     8 1   
     4     2     3 ar  
     5     2    35 1   
     6     3     4 ar  
     7     3    36 1   
     8     4     5 ar  
     9     4     7 1   
    10     5     6 ar  
    11     5    37 1   
    12     6    38 1   
    13     7     9 2   
    14     7    13 1   
    15     8    39 1   
    16     9    10 1   
    17     9    14 1   
    18    10    11 1   
    19    10    21 1   
    20    10    40 1   
    21    11    12 1   
    22    11    22 1   
    23    11    41 1   
    24    12    13 1   
    25    12    42 1   
    26    12    43 1   
    27    13    21 1   
    28    13    44 1   
    29    14    15 ar  
    30    14    19 ar  
    31    15    16 ar  
    32    15    45 1   
    33    16    17 ar  
    34    16    46 1   
    35    17    18 ar  
    36    17    20 1   
    37    18    19 ar  
    38    18    47 1   
    39    19    48 1   
    40    20    49 1   
    41    22    23 1   
    42    22    33 2   
    43    22    34 2   
    44    23    24 1   
    45    23    25 1   
    46    24    27 ar  
    47    24    31 ar  
    48    25    26 1   
    49    25    50 1   
    50    25    51 1   
    51    26    52 1   
    52    26    53 1   
    53    26    54 1   
    54    27    28 ar  
    55    27    55 1   
    56    28    29 ar  
    57    28    56 1   
    58    29    30 ar  
    59    29    32 1   
    60    30    31 ar  
    61    30    57 1   
    62    31    58 1   
@<TRIPOS>SUBSTRUCTURE
     1 OB6         1 TEMP              0 ****  ****    0 ROOT
