@<TRIPOS>MOLECULE
molecule
   58    62     1     0     0
SMALL
bcc


@<TRIPOS>ATOM
      1 C01          0.0000     0.0000     0.0000 ca         1 OB6       0.109100
      2 C02          1.3890     0.0000     0.0000 ca         1 OB6      -0.153000
      3 C03          2.0800     0.0000     1.1920 ca         1 OB6      -0.098000
      4 C04          1.3810    -0.0000     2.4030 ca         1 OB6      -0.049800
      5 C05         -0.0170     0.0000     2.3970 ca         1 OB6      -0.098000
      6 C06         -0.6990    -0.0000     1.2010 ca         1 OB6      -0.153000
      7 C07          2.1160    -0.0010     3.6800 ce         1 OB6      -0.086400
      8 O01         -0.6770     0.0060    -1.1780 oh         1 OB6      -0.521100
      9 C08          2.9160     0.9820     4.1620 cf         1 OB6      -0.076400
     10 C09          3.4270     0.4810     5.5160 c3         1 OB6       0.191300
     11 C10          2.1990     0.5660     6.4730 c3         1 OB6      -0.245900
     12 C11          1.2830    -0.5590     5.9210 c3         1 OB6      -0.071400
     13 C12          2.1270    -1.1090     4.7370 c3         1 OB6       0.171300
     14 C13          3.2280     2.2690     3.5170 ca         1 OB6      -0.055800
     15 C14          2.2170     3.2130     3.3090 ca         1 OB6      -0.096000
     16 C15          2.5140     4.4150     2.7040 ca         1 OB6      -0.153000
     17 C16          3.8140     4.6900     2.3010 ca         1 OB6       0.113100
     18 C17          4.8220     3.7560     2.5060 ca         1 OB6      -0.153000
     19 C18          4.5350     2.5540     3.1140 ca         1 OB6      -0.096000
     20 O02          4.1020     5.8770     1.7060 oh         1 OB6      -0.521100
     21 O03          3.4910    -0.9630     5.2650 os         1 OB6      -0.382600
     22 S01          2.6860     0.2220     8.1860 s6         1 OB6       1.341900
     23 N01          1.2770     0.3420     9.0490 nh         1 OB6      -0.668900
     24 C19          0.6410     1.5790     9.1810 ca         1 OB6       0.153600
     25 C20          0.6970    -0.8510     9.6730 c3         1 OB6       0.224800
     26 C21          1.1550    -0.9360    11.1310 c3         1 OB6      -0.107100
     27 C22         -0.7300     1.6360     9.4000 ca         1 OB6      -0.175000
     28 C23         -1.3560     2.8600     9.5290 ca         1 OB6      -0.093500
     29 C24         -0.6200     4.0290     9.4420 ca         1 OB6       0.002400
     30 C25          0.7460     3.9740     9.2240 ca         1 OB6      -0.093500
     31 C26          1.3780     2.7530     9.0990 ca         1 OB6      -0.175000
     32 Cl1         -1.4100     5.5650     9.6060 cl         1 OB6      -0.109400
     33 O04          3.0720    -1.1370     8.3310 o          1 OB6      -0.614300
     34 O05          3.4970     1.2730     8.6940 o          1 OB6      -0.614300
     35 H1           1.9290     0.0000    -0.9390 ha         1 OB6       0.143500
     36 H2           3.1630    -0.0000     1.1910 ha         1 OB6       0.138500
     37 H3          -0.5630     0.0000     3.3330 ha         1 OB6       0.138500
     38 H4          -1.7830    -0.0000     1.1960 ha         1 OB6       0.143500
     39 H5          -0.8460    -0.8820    -1.4470 ho         1 OB6       0.421000
     40 H6           4.3430     0.9350     5.8750 h1         1 OB6       0.118700
     41 H7           1.7140     1.5320     6.3930 h1         1 OB6       0.119700
     42 H8           0.3420    -0.1540     5.5700 hc         1 OB6       0.064700
     43 H9           1.1210    -1.3260     6.6680 hc         1 OB6       0.064700
     44 H10          1.8650    -2.1000     4.3870 h1         1 OB6       0.113700
     45 H11          1.2020     3.0000     3.6230 ha         1 OB6       0.139000
     46 H12          1.7310     5.1470     2.5430 ha         1 OB6       0.144000
     47 H13          5.8350     3.9760     2.1920 ha         1 OB6       0.144000
     48 H14          5.3220     1.8260     3.2730 ha         1 OB6       0.139000
     49 H15          3.9490     5.8080     0.7780 ho         1 OB6       0.422000
     50 H16          1.0260    -1.7340     9.1390 h1         1 OB6       0.062200
     51 H17         -0.3840    -0.7880     9.6360 h1         1 OB6       0.062200
     52 H18          1.0930    -1.9630    11.4690 hc         1 OB6       0.046700
     53 H19          2.1790    -0.5920    11.2080 hc         1 OB6       0.046700
     54 H20          0.5170    -0.3140    11.7470 hc         1 OB6       0.046700
     55 H21         -1.3070     0.7220     9.4680 ha         1 OB6       0.169000
     56 H22         -2.4250     2.9060     9.7000 ha         1 OB6       0.148000
     57 H23          1.3210     4.8900     9.1580 ha         1 OB6       0.148000
     58 H24          2.4470     2.7100     8.9280 ha         1 OB6       0.169000
@<TRIPOS>BOND
     1    20    17 1
     2    18    17 ar
     3    18    19 ar
     4    17    16 ar
     5     2     3 ar
     6     2     1 ar
     7    19    14 ar
     8     8     1 1
     9     3     4 ar
    10    16    15 ar
    11     1     6 ar
    12    14    15 ar
    13    14     9 1
    14     4     7 1
    15     4     5 ar
    16     9     7 2
    17     9    10 1
    18     6     5 ar
    19     7    13 1
    20    30    31 ar
    21    30    29 ar
    22    10    21 1
    23    10    11 1
    24    21    13 1
    25    31    24 ar
    26    32    29 1
    27    13    12 1
    28    29    28 ar
    29    26    25 1
    30    11    12 1
    31    11    22 1
    32    24    23 1
    33    24    27 ar
    34    25    23 1
    35    23    22 1
    36    28    27 ar
    37    33    22 2
    38    22    34 2
    39     2    35 1
    40     3    36 1
    41     5    37 1
    42     6    38 1
    43     8    39 1
    44    10    40 1
    45    11    41 1
    46    12    42 1
    47    12    43 1
    48    13    44 1
    49    15    45 1
    50    16    46 1
    51    18    47 1
    52    19    48 1
    53    20    49 1
    54    25    50 1
    55    25    51 1
    56    26    52 1
    57    26    53 1
    58    26    54 1
    59    27    55 1
    60    28    56 1
    61    30    57 1
    62    31    58 1
@<TRIPOS>SUBSTRUCTURE
     1 OB6         1 TEMP              0 ****  ****    0 ROOT
