@<TRIPOS>MOLECULE
molecule
   58    62     1     0     0
SMALL
bcc


@<TRIPOS>ATOM
      1 C01          0.0000     0.0000     0.0000 ca         1 OB7       0.110100
      2 C02          1.3900     0.0000     0.0000 ca         1 OB7      -0.152500
      3 C03          2.0810     0.0000     1.1920 ca         1 OB7      -0.097500
      4 C04          1.3810     0.0000     2.4030 ca         1 OB7      -0.049800
      5 C05         -0.0160     0.0010     2.3970 ca         1 OB7      -0.097500
      6 C06         -0.6990     0.0060     1.2010 ca         1 OB7      -0.152500
      7 O01         -0.6770     0.0020    -1.1770 oh         1 OB7      -0.521100
      8 C07          2.1160    -0.0060     3.6800 ce         1 OB7      -0.082400
      9 C08          2.1260    -0.9910     4.6120 cf         1 OB7      -0.085400
     10 C09          3.0410    -0.4980     5.7370 c3         1 OB7       0.171300
     11 C10          4.4880    -0.5880     5.1580 c3         1 OB7      -0.071400
     12 C11          4.4790     0.5400     4.0920 c3         1 OB7      -0.248900
     13 C12          3.0290     1.0970     4.2230 c3         1 OB7       0.194300
     14 C13          1.4040    -2.2740     4.5540 ca         1 OB7      -0.051800
     15 C14          0.3890    -2.5500     5.4760 ca         1 OB7      -0.097500
     16 C15         -0.2830    -3.7510     5.4170 ca         1 OB7      -0.154500
     17 C16          0.0440    -4.6870     4.4450 ca         1 OB7       0.111100
     18 C17          1.0530    -4.4180     3.5280 ca         1 OB7      -0.154500
     19 C18          1.7270    -3.2170     3.5750 ca         1 OB7      -0.097500
     20 O02         -0.6220    -5.8690     4.3920 oh         1 OB7      -0.521100
     21 O03          2.8000     0.9480     5.6690 os         1 OB7      -0.379600
     22 S01          5.7050     1.8160     4.4890 s6         1 OB7       1.337900
     23 N01          7.1550     1.0190     4.4590 nh         1 OB7      -0.687900
     24 C19          7.7130     0.5360     5.6460 ca         1 OB7       0.132600
     25 C20          7.9530    -0.8240     5.8000 ca         1 OB7      -0.115000
     26 C21          8.5030    -1.2990     6.9740 ca         1 OB7      -0.114500
     27 C22          8.8140    -0.4220     7.9980 ca         1 OB7       0.027400
     28 C23          8.5730     0.9330     7.8490 ca         1 OB7      -0.114500
     29 C24          8.0300     1.4140     6.6740 ca         1 OB7      -0.115000
     30 Cl1          9.5040    -1.0220     9.4730 cl         1 OB7      -0.105400
     31 C25          7.8560     0.8190     3.1870 c3         1 OB7       0.238800
     32 C26          8.8820     1.9370     2.9900 c3         1 OB7      -0.106100
     33 O04          5.8020     2.7600     3.4310 o          1 OB7      -0.612800
     34 O05          5.5650     2.2390     5.8380 o          1 OB7      -0.612800
     35 H1           1.9300    -0.0020    -0.9390 ha         1 OB7       0.143500
     36 H2           3.1640    -0.0000     1.1910 ha         1 OB7       0.137500
     37 H3          -0.5620     0.0030     3.3330 ha         1 OB7       0.137500
     38 H4          -1.7820     0.0060     1.1960 ha         1 OB7       0.143500
     39 H5          -0.8410    -0.8870    -1.4470 ho         1 OB7       0.420000
     40 H6           2.8880    -0.9520     6.7090 h1         1 OB7       0.114700
     41 H7           4.6600    -1.5530     4.6970 hc         1 OB7       0.068200
     42 H8           5.2250    -0.3870     5.9270 hc         1 OB7       0.068200
     43 H9           4.6480     0.1350     3.1020 h1         1 OB7       0.106700
     44 H10          2.8630     2.0900     3.8240 h1         1 OB7       0.117700
     45 H11          0.1320    -1.8200     6.2350 ha         1 OB7       0.139500
     46 H12         -1.0700    -3.9650     6.1310 ha         1 OB7       0.143500
     47 H13          1.3040    -5.1500     2.7700 ha         1 OB7       0.143500
     48 H14          2.5130    -3.0090     2.8590 ha         1 OB7       0.139500
     49 H15         -1.4020    -5.7680     3.8710 ho         1 OB7       0.421000
     50 H16          7.7100    -1.5110     4.9980 ha         1 OB7       0.148500
     51 H17          8.6910    -2.3590     7.0930 ha         1 OB7       0.148500
     52 H18          8.8190     1.6180     8.6520 ha         1 OB7       0.148500
     53 H19          7.8420     2.4750     6.5580 ha         1 OB7       0.148500
     54 H20          7.1410     0.8380     2.3740 h1         1 OB7       0.049700
     55 H21          8.3630    -0.1380     3.2000 h1         1 OB7       0.049700
     56 H22          9.8700     1.5680     3.2380 hc         1 OB7       0.046367
     57 H23          8.8670     2.2630     1.9570 hc         1 OB7       0.046367
     58 H24          8.6360     2.7720     3.6350 hc         1 OB7       0.046367
@<TRIPOS>BOND
     1    30    27 1
     2    28    27 ar
     3    28    29 ar
     4    27    26 ar
     5    29    24 ar
     6    34    22 2
     7    26    25 ar
     8    24    25 ar
     9    24    23 1
    10    23    22 1
    11    23    31 1
    12    22    33 2
    13    22    12 1
    14    11    12 1
    15    11    10 1
    16    32    31 1
    17    12    13 1
    18    10    21 1
    19    10     9 1
    20    21    13 1
    21    13     8 1
    22     9    14 1
    23     9     8 2
    24    14    19 ar
    25    14    15 ar
    26    19    18 ar
    27    15    16 ar
    28    18    17 ar
    29    16    17 ar
    30    17    20 1
    31     8     4 1
    32     4     5 ar
    33     4     3 ar
    34     5     6 ar
    35     6     1 ar
    36     3     2 ar
    37     2     1 ar
    38     1     7 1
    39     2    35 1
    40     3    36 1
    41     5    37 1
    42     6    38 1
    43     7    39 1
    44    10    40 1
    45    11    41 1
    46    11    42 1
    47    12    43 1
    48    13    44 1
    49    15    45 1
    50    16    46 1
    51    18    47 1
    52    19    48 1
    53    20    49 1
    54    25    50 1
    55    26    51 1
    56    28    52 1
    57    29    53 1
    58    31    54 1
    59    31    55 1
    60    32    56 1
    61    32    57 1
    62    32    58 1
@<TRIPOS>SUBSTRUCTURE
     1 OB7         1 TEMP              0 ****  ****    0 ROOT
