@<TRIPOS>MOLECULE
OB7
   58    62     1     0     0
SMALL
bcc


@<TRIPOS>ATOM
      1 C01          0.0000     0.0000     0.0000 ca         1 OB7       0.128100
      2 C02          1.3900     0.0000     0.0000 ca         1 OB7      -0.137000
      3 C03          2.0810     0.0000     1.1920 ca         1 OB7      -0.067500
      4 C04          1.3810     0.0000     2.4030 ca         1 OB7      -0.047800
      5 C05         -0.0160     0.0010     2.3970 ca         1 OB7      -0.067500
      6 C06         -0.6990     0.0060     1.2010 ca         1 OB7      -0.137000
      7 O01         -0.6770     0.0020    -1.1770 oh         1 OB7      -0.499100
      8 C07          2.1160    -0.0060     3.6800 ce         1 OB7      -0.099400
      9 C08          2.1260    -0.9910     4.6120 cf         1 OB7      -0.092400
     10 C09          3.0410    -0.4980     5.7370 c3         1 OB7       0.232300
     11 C10          4.4880    -0.5880     5.1580 c3         1 OB7      -0.024400
     12 C11          4.4790     0.5400     4.0920 c3         1 OB7      -0.076900
     13 C12          3.0290     1.0970     4.2230 c3         1 OB7       0.270300
     14 C13          1.4040    -2.2740     4.5540 ca         1 OB7      -0.049800
     15 C14          0.3890    -2.5500     5.4760 ca         1 OB7      -0.067500
     16 C15         -0.2830    -3.7510     5.4170 ca         1 OB7      -0.139000
     17 C16          0.0440    -4.6870     4.4450 ca         1 OB7       0.129100
     18 C17          1.0530    -4.4180     3.5280 ca         1 OB7      -0.139000
     19 C18          1.7270    -3.2170     3.5750 ca         1 OB7      -0.067500
     20 O02         -0.6220    -5.8690     4.3920 oh         1 OB7      -0.500100
     21 O03          2.8000     0.9480     5.6690 os         1 OB7      -0.378600
     22 S01          5.7050     1.8160     4.4890 s6         1 OB7       0.970900
     23 N01          7.1550     1.0190     4.4590 nh         1 OB7      -0.384900
     24 C19          7.7130     0.5360     5.6460 ca         1 OB7       0.068600
     25 C20          7.9530    -0.8240     5.8000 ca         1 OB7      -0.096000
     26 C21          8.5030    -1.2990     6.9740 ca         1 OB7      -0.089000
     27 C22          8.8140    -0.4220     7.9980 ca         1 OB7      -0.039600
     28 C23          8.5730     0.9330     7.8490 ca         1 OB7      -0.089000
     29 C24          8.0300     1.4140     6.6740 ca         1 OB7      -0.096000
     30 Cl1          9.5040    -1.0220     9.4730 cl         1 OB7      -0.028400
     31 C25          7.8560     0.8190     3.1870 c3         1 OB7       0.235800
     32 C26          8.8820     1.9370     2.9900 c3         1 OB7      -0.015100
     33 O04          5.8020     2.7600     3.4310 o          1 OB7      -0.570300
     34 O05          5.5650     2.2390     5.8380 o          1 OB7      -0.570300
     35 H1           1.9300    -0.0020    -0.9390 ha         1 OB7       0.115500
     36 H2           3.1640    -0.0000     1.1910 ha         1 OB7       0.108000
     37 H3          -0.5620     0.0030     3.3330 ha         1 OB7       0.108000
     38 H4          -1.7820     0.0060     1.1960 ha         1 OB7       0.115500
     39 H5          -0.8410    -0.8870    -1.4470 ho         1 OB7       0.403000
     40 H6           2.8880    -0.9520     6.7090 h1         1 OB7       0.063700
     41 H7           4.6600    -1.5530     4.6970 hc         1 OB7       0.038700
     42 H8           5.2250    -0.3870     5.9270 hc         1 OB7       0.038700
     43 H9           4.6480     0.1350     3.1020 h1         1 OB7       0.082700
     44 H10          2.8630     2.0900     3.8240 h1         1 OB7       0.070700
     45 H11          0.1320    -1.8200     6.2350 ha         1 OB7       0.109500
     46 H12         -1.0700    -3.9650     6.1310 ha         1 OB7       0.115500
     47 H13          1.3040    -5.1500     2.7700 ha         1 OB7       0.115500
     48 H14          2.5130    -3.0090     2.8590 ha         1 OB7       0.109500
     49 H15         -1.4020    -5.7680     3.8710 ho         1 OB7       0.404000
     50 H16          7.7100    -1.5110     4.9980 ha         1 OB7       0.120500
     51 H17          8.6910    -2.3590     7.0930 ha         1 OB7       0.115500
     52 H18          8.8190     1.6180     8.6520 ha         1 OB7       0.115500
     53 H19          7.8420     2.4750     6.5580 ha         1 OB7       0.120500
     54 H20          7.1410     0.8380     2.3740 h1         1 OB7       0.014200
     55 H21          8.3630    -0.1380     3.2000 h1         1 OB7       0.014200
     56 H22          9.8700     1.5680     3.2380 hc         1 OB7       0.012033
     57 H23          8.8670     2.2630     1.9570 hc         1 OB7       0.012033
     58 H24          8.6360     2.7720     3.6350 hc         1 OB7       0.012033
@<TRIPOS>BOND
     1     1     2 ar  
     2     1     6 ar  
     3     1     7 1   
     4     2     3 ar  
     5     2    35 1   
     6     3     4 ar  
     7     3    36 1   
     8     4     5 ar  
     9     4     8 1   
    10     5     6 ar  
    11     5    37 1   
    12     6    38 1   
    13     7    39 1   
    14     8     9 2   
    15     8    13 1   
    16     9    10 1   
    17     9    14 1   
    18    10    11 1   
    19    10    21 1   
    20    10    40 1   
    21    11    12 1   
    22    11    41 1   
    23    11    42 1   
    24    12    13 1   
    25    12    22 1   
    26    12    43 1   
    27    13    21 1   
    28    13    44 1   
    29    14    15 ar  
    30    14    19 ar  
    31    15    16 ar  
    32    15    45 1   
    33    16    17 ar  
    34    16    46 1   
    35    17    18 ar  
    36    17    20 1   
    37    18    19 ar  
    38    18    47 1   
    39    19    48 1   
    40    20    49 1   
    41    22    23 1   
    42    22    33 2   
    43    22    34 2   
    44    23    24 1   
    45    23    31 1   
    46    24    25 ar  
    47    24    29 ar  
    48    25    26 ar  
    49    25    50 1   
    50    26    27 ar  
    51    26    51 1   
    52    27    28 ar  
    53    27    30 1   
    54    28    29 ar  
    55    28    52 1   
    56    29    53 1   
    57    31    32 1   
    58    31    54 1   
    59    31    55 1   
    60    32    56 1   
    61    32    57 1   
    62    32    58 1   
@<TRIPOS>SUBSTRUCTURE
     1 OB7         1 TEMP              0 ****  ****    0 ROOT
