@<TRIPOS>MOLECULE
OB8
   64    69     1     0     0
SMALL
bcc


@<TRIPOS>ATOM
      1 C01          0.0000     0.0000     0.0000 ca         1 OB8      -0.137500
      2 C02          1.3890     0.0000     0.0000 ca         1 OB8       0.129100
      3 C03          2.0880     0.0000     1.2000 ca         1 OB8      -0.137500
      4 C04          1.4060     0.0010     2.3970 ca         1 OB8      -0.067000
      5 C05          0.0090     0.0020     2.4030 ca         1 OB8      -0.050800
      6 C06         -0.6910     0.0070     1.1920 ca         1 OB8      -0.067000
      7 O01          2.0650    -0.0020    -1.1790 oh         1 OB8      -0.500100
      8 C07         -0.7250     0.0010     3.6810 ce         1 OB8      -0.100400
      9 C08         -0.7340     0.9830     4.6160 cf         1 OB8      -0.092400
     10 C09         -1.6490     0.4840     5.7400 c3         1 OB8       0.229300
     11 C10         -0.0130     2.2670     4.5640 ca         1 OB8      -0.048800
     12 C11         -1.6380    -1.1030     4.2200 c3         1 OB8       0.271300
     13 C12         -0.3370     3.2140     3.5880 ca         1 OB8      -0.068500
     14 C13          0.3410     4.4130     3.5430 ca         1 OB8      -0.138000
     15 C14          1.3440     4.6810     4.4640 ca         1 OB8       0.128100
     16 C15          1.6700     3.7430     5.4360 ca         1 OB8      -0.138000
     17 C16          0.9940     2.5430     5.4930 ca         1 OB8      -0.068500
     18 O02          2.0110     5.8630     4.4150 oh         1 OB8      -0.500100
     19 C17         -0.8270    -1.7610     5.3790 c3         1 OB8      -0.086900
     20 C18         -0.8290    -0.6240     6.4700 c3         1 OB8      -0.026400
     21 S01         -1.6600    -3.2500     5.9940 s6         1 OB8       0.969900
     22 O03         -2.6130    -0.3120     4.9730 os         1 OB8      -0.374600
     23 N01         -0.8440    -3.6370     7.3820 nh         1 OB8      -0.355900
     24 O04         -2.9740    -2.9390     6.4370 o          1 OB8      -0.566300
     25 O05         -1.4190    -4.3500     5.1280 o          1 OB8      -0.566300
     26 C19          0.2610    -4.4900     7.3280 ca         1 OB8       0.100600
     27 C20         -1.2800    -3.0850     8.6680 c3         1 OB8       0.216800
     28 C21         -2.2030    -4.0860     9.3660 c3         1 OB8      -0.022100
     29 C22          0.9940    -4.5990     6.1400 ca         1 OB8      -0.142000
     30 C23          2.0730    -5.4220     6.0590 ca         1 OB8      -0.050000
     31 C24          2.4660    -6.1750     7.1780 ca         1 OB8      -0.061000
     32 C25          1.7300    -6.0710     8.3850 ca         1 OB8      -0.003000
     33 C26          0.6220    -5.2110     8.4450 ca         1 OB8      -0.157000
     34 C27          3.5770    -7.0330     7.1230 ca         1 OB8      -0.077000
     35 C28          3.9310    -7.7510     8.2240 ca         1 OB8      -0.112000
     36 C29          3.2070    -7.6470     9.4100 ca         1 OB8      -0.092000
     37 C30          2.1260    -6.8270     9.5020 ca         1 OB8      -0.099000
     38 H1          -0.5410     0.0020    -0.9390 ha         1 OB8       0.116000
     39 H2           3.1710    -0.0000     1.1940 ha         1 OB8       0.116000
     40 H3           1.9530    -0.0010     3.3320 ha         1 OB8       0.109000
     41 H4          -1.7740     0.0070     1.1920 ha         1 OB8       0.109000
     42 H5           2.2270     0.8870    -1.4500 ho         1 OB8       0.403000
     43 H6          -2.0780     1.2510     6.3740 h1         1 OB8       0.063700
     44 H7          -2.0510    -1.7810     3.4830 h1         1 OB8       0.069700
     45 H8          -1.1200     3.0060     2.8690 ha         1 OB8       0.109000
     46 H9           0.0910     5.1480     2.7880 ha         1 OB8       0.115500
     47 H10          2.4520     3.9570     6.1540 ha         1 OB8       0.115500
     48 H11          1.2490     1.8120     6.2510 ha         1 OB8       0.109000
     49 H12          2.7640     5.7770     3.8550 ho         1 OB8       0.403000
     50 H13          0.1840    -1.9870     5.0610 h1         1 OB8       0.090700
     51 H14         -1.3330    -0.9510     7.3720 hc         1 OB8       0.036700
     52 H15          0.1780    -0.2870     6.6830 hc         1 OB8       0.036700
     53 H16         -0.4140    -2.8960     9.2910 h1         1 OB8       0.024200
     54 H17         -1.8140    -2.1580     8.5000 h1         1 OB8       0.024200
     55 H18         -3.1890    -3.6520     9.4760 hc         1 OB8       0.015367
     56 H19         -1.8020    -4.3250    10.3440 hc         1 OB8       0.015367
     57 H20         -2.2700    -4.9900     8.7730 hc         1 OB8       0.015367
     58 H21          0.6970    -4.0200     5.2740 ha         1 OB8       0.122000
     59 H22          2.6300    -5.4950     5.1330 ha         1 OB8       0.106000
     60 H23          0.1360    -5.0180     9.3940 ha         1 OB8       0.124000
     61 H24          4.1500    -7.1240     6.2070 ha         1 OB8       0.104000
     62 H25          4.7880    -8.4120     8.1780 ha         1 OB8       0.101000
     63 H26          3.5100    -8.2290    10.2730 ha         1 OB8       0.099000
     64 H27          1.5730    -6.7560    10.4310 ha         1 OB8       0.105000
@<TRIPOS>BOND
     1     1     2 ar  
     2     1     6 ar  
     3     1    38 1   
     4     2     3 ar  
     5     2     7 1   
     6     3     4 ar  
     7     3    39 1   
     8     4     5 ar  
     9     4    40 1   
    10     5     6 ar  
    11     5     8 1   
    12     6    41 1   
    13     7    42 1   
    14     8     9 2   
    15     8    12 1   
    16     9    10 1   
    17     9    11 1   
    18    10    20 1   
    19    10    22 1   
    20    10    43 1   
    21    11    13 ar  
    22    11    17 ar  
    23    12    19 1   
    24    12    22 1   
    25    12    44 1   
    26    13    14 ar  
    27    13    45 1   
    28    14    15 ar  
    29    14    46 1   
    30    15    16 ar  
    31    15    18 1   
    32    16    17 ar  
    33    16    47 1   
    34    17    48 1   
    35    18    49 1   
    36    19    20 1   
    37    19    21 1   
    38    19    50 1   
    39    20    51 1   
    40    20    52 1   
    41    21    23 1   
    42    21    24 2   
    43    21    25 2   
    44    23    26 1   
    45    23    27 1   
    46    26    29 ar  
    47    26    33 ar  
    48    27    28 1   
    49    27    53 1   
    50    27    54 1   
    51    28    55 1   
    52    28    56 1   
    53    28    57 1   
    54    29    30 ar  
    55    29    58 1   
    56    30    31 ar  
    57    30    59 1   
    58    31    32 ar  
    59    31    34 ar  
    60    32    33 ar  
    61    32    37 ar  
    62    33    60 1   
    63    34    35 ar  
    64    34    61 1   
    65    35    36 ar  
    66    35    62 1   
    67    36    37 ar  
    68    36    63 1   
    69    37    64 1   
@<TRIPOS>SUBSTRUCTURE
     1 OB8         1 TEMP              0 ****  ****    0 ROOT
