@<TRIPOS>MOLECULE
molecule
   64    69     1     0     0
SMALL
bcc


@<TRIPOS>ATOM
      1 C01          0.0000     0.0000     0.0000 ca         1 OB8      -0.153000
      2 C02          1.3890     0.0000     0.0000 ca         1 OB8       0.111100
      3 C03          2.0880     0.0000     1.2000 ca         1 OB8      -0.153000
      4 C04          1.4060     0.0010     2.3970 ca         1 OB8      -0.097000
      5 C05          0.0090     0.0020     2.4030 ca         1 OB8      -0.052800
      6 C06         -0.6910     0.0070     1.1920 ca         1 OB8      -0.097000
      7 O01          2.0650    -0.0020    -1.1790 oh         1 OB8      -0.521100
      8 C07         -0.7250     0.0010     3.6810 ce         1 OB8      -0.082400
      9 C08         -0.7340     0.9830     4.6160 cf         1 OB8      -0.085400
     10 C09         -1.6490     0.4840     5.7400 c3         1 OB8       0.169300
     11 C10         -0.0130     2.2670     4.5640 ca         1 OB8      -0.049800
     12 C11         -1.6380    -1.1030     4.2200 c3         1 OB8       0.195300
     13 C12         -0.3370     3.2140     3.5880 ca         1 OB8      -0.098000
     14 C13          0.3410     4.4130     3.5430 ca         1 OB8      -0.153500
     15 C14          1.3440     4.6810     4.4640 ca         1 OB8       0.110100
     16 C15          1.6700     3.7430     5.4360 ca         1 OB8      -0.153500
     17 C16          0.9940     2.5430     5.4930 ca         1 OB8      -0.098000
     18 O02          2.0110     5.8630     4.4150 oh         1 OB8      -0.521100
     19 C17         -0.8270    -1.7610     5.3790 c3         1 OB8      -0.254900
     20 C18         -0.8290    -0.6240     6.4700 c3         1 OB8      -0.072400
     21 S01         -1.6600    -3.2500     5.9940 s6         1 OB8       1.336900
     22 O03         -2.6130    -0.3120     4.9730 os         1 OB8      -0.376600
     23 N01         -0.8440    -3.6370     7.3820 nh         1 OB8      -0.667900
     24 O04         -2.9740    -2.9390     6.4370 o          1 OB8      -0.607800
     25 O05         -1.4190    -4.3500     5.1280 o          1 OB8      -0.607800
     26 C19          0.2610    -4.4900     7.3280 ca         1 OB8       0.167600
     27 C20         -1.2800    -3.0850     8.6680 c3         1 OB8       0.228800
     28 C21         -2.2030    -4.0860     9.3660 c3         1 OB8      -0.113100
     29 C22          0.9940    -4.5990     6.1400 ca         1 OB8      -0.155000
     30 C23          2.0730    -5.4220     6.0590 ca         1 OB8      -0.079000
     31 C24          2.4660    -6.1750     7.1780 ca         1 OB8      -0.057000
     32 C25          1.7300    -6.0710     8.3850 ca         1 OB8      -0.009000
     33 C26          0.6220    -5.2110     8.4450 ca         1 OB8      -0.159000
     34 C27          3.5770    -7.0330     7.1230 ca         1 OB8      -0.107000
     35 C28          3.9310    -7.7510     8.2240 ca         1 OB8      -0.134000
     36 C29          3.2070    -7.6470     9.4100 ca         1 OB8      -0.117000
     37 C30          2.1260    -6.8270     9.5020 ca         1 OB8      -0.124000
     38 H1          -0.5410     0.0020    -0.9390 ha         1 OB8       0.144000
     39 H2           3.1710    -0.0000     1.1940 ha         1 OB8       0.144000
     40 H3           1.9530    -0.0010     3.3320 ha         1 OB8       0.139500
     41 H4          -1.7740     0.0070     1.1920 ha         1 OB8       0.139500
     42 H5           2.2270     0.8870    -1.4500 ho         1 OB8       0.421000
     43 H6          -2.0780     1.2510     6.3740 h1         1 OB8       0.114700
     44 H7          -2.0510    -1.7810     3.4830 h1         1 OB8       0.116700
     45 H8          -1.1200     3.0060     2.8690 ha         1 OB8       0.138500
     46 H9           0.0910     5.1480     2.7880 ha         1 OB8       0.143500
     47 H10          2.4520     3.9570     6.1540 ha         1 OB8       0.143500
     48 H11          1.2490     1.8120     6.2510 ha         1 OB8       0.138500
     49 H12          2.7640     5.7770     3.8550 ho         1 OB8       0.420000
     50 H13          0.1840    -1.9870     5.0610 h1         1 OB8       0.114700
     51 H14         -1.3330    -0.9510     7.3720 hc         1 OB8       0.064700
     52 H15          0.1780    -0.2870     6.6830 hc         1 OB8       0.064700
     53 H16         -0.4140    -2.8960     9.2910 h1         1 OB8       0.056200
     54 H17         -1.8140    -2.1580     8.5000 h1         1 OB8       0.056200
     55 H18         -3.1890    -3.6520     9.4760 hc         1 OB8       0.049033
     56 H19         -1.8020    -4.3250    10.3440 hc         1 OB8       0.049033
     57 H20         -2.2700    -4.9900     8.7730 hc         1 OB8       0.049033
     58 H21          0.6970    -4.0200     5.2740 ha         1 OB8       0.134000
     59 H22          2.6300    -5.4950     5.1330 ha         1 OB8       0.138000
     60 H23          0.1360    -5.0180     9.3940 ha         1 OB8       0.141000
     61 H24          4.1500    -7.1240     6.2070 ha         1 OB8       0.132000
     62 H25          4.7880    -8.4120     8.1780 ha         1 OB8       0.129000
     63 H26          3.5100    -8.2290    10.2730 ha         1 OB8       0.128000
     64 H27          1.5730    -6.7560    10.4310 ha         1 OB8       0.132000
@<TRIPOS>BOND
     1    35    34 ar
     2    35    36 ar
     3    34    31 ar
     4    36    37 ar
     5    31    30 ar
     6    31    32 ar
     7    37    32 ar
     8    30    29 ar
     9    32    33 ar
    10    29    26 ar
    11    33    26 ar
    12    26    23 1
    13    25    21 2
    14    23    21 1
    15    23    27 1
    16    21    24 2
    17    21    19 1
    18    27    28 1
    19    19    20 1
    20    19    12 1
    21    20    10 1
    22    12    22 1
    23    12     8 1
    24    22    10 1
    25     8     5 1
    26     8     9 2
    27     4     5 ar
    28     4     3 ar
    29     5     6 ar
    30     3     2 ar
    31     6     1 ar
    32    10     9 1
    33     2     1 ar
    34     2     7 1
    35     9    11 1
    36    11    13 ar
    37    11    17 ar
    38    13    14 ar
    39    17    16 ar
    40    14    15 ar
    41    16    15 ar
    42    15    18 1
    43     1    38 1
    44     3    39 1
    45     4    40 1
    46     6    41 1
    47     7    42 1
    48    10    43 1
    49    12    44 1
    50    13    45 1
    51    14    46 1
    52    16    47 1
    53    17    48 1
    54    18    49 1
    55    19    50 1
    56    20    51 1
    57    20    52 1
    58    27    53 1
    59    27    54 1
    60    28    55 1
    61    28    56 1
    62    28    57 1
    63    29    58 1
    64    30    59 1
    65    33    60 1
    66    34    61 1
    67    35    62 1
    68    36    63 1
    69    37    64 1
@<TRIPOS>SUBSTRUCTURE
     1 OB8         1 TEMP              0 ****  ****    0 ROOT
