@<TRIPOS>MOLECULE
OB9
   58    62     1     0     0
SMALL
bcc


@<TRIPOS>ATOM
      1 C01          0.0000     0.0000     0.0000 ca         1 OB9      -0.137000
      2 C02          1.3890     0.0000     0.0000 ca         1 OB9       0.131100
      3 C03          2.0890     0.0000     1.2000 ca         1 OB9      -0.137000
      4 C04          1.4070    -0.0010     2.3980 ca         1 OB9      -0.065500
      5 C05          0.0080    -0.0000     2.4030 ca         1 OB9      -0.053800
      6 C06         -0.6900     0.0050     1.1930 ca         1 OB9      -0.065500
      7 O01          2.0660     0.0010    -1.1780 oh         1 OB9      -0.500100
      8 C07         -0.7250    -0.0020     3.6810 ce         1 OB9      -0.096400
      9 C08         -0.7360     0.9790     4.6180 cf         1 OB9      -0.092400
     10 C09         -1.6480     0.4790     5.7410 c3         1 OB9       0.229300
     11 C10         -0.0150     2.2630     4.5660 ca         1 OB9      -0.050800
     12 C11         -1.6370    -1.1080     4.2190 c3         1 OB9       0.270300
     13 C12          1.0000     2.5350     5.4870 ca         1 OB9      -0.068000
     14 C13          1.6710     3.7370     5.4350 ca         1 OB9      -0.137000
     15 C14          1.3410     4.6780     4.4680 ca         1 OB9       0.130100
     16 C15          0.3330     4.4120     3.5490 ca         1 OB9      -0.137000
     17 C16         -0.3400     3.2110     3.5910 ca         1 OB9      -0.068000
     18 O02          2.0060     5.8620     4.4190 oh         1 OB9      -0.499100
     19 C17         -0.8250    -1.7660     5.3780 c3         1 OB9      -0.074900
     20 C18         -0.8280    -0.6300     6.4700 c3         1 OB9      -0.020400
     21 S01         -1.6580    -3.2560     5.9920 s6         1 OB9       0.967900
     22 O03         -2.6130    -0.3180     4.9730 os         1 OB9      -0.375600
     23 N01         -0.8400    -3.6440     7.3790 nh         1 OB9      -0.368900
     24 O04         -2.9720    -2.9470     6.4340 o          1 OB9      -0.560300
     25 O05         -1.4170    -4.3550     5.1240 o          1 OB9      -0.560300
     26 C19          0.3390    -4.3890     7.3100 ca         1 OB9       0.038600
     27 C20         -1.3550    -3.2060     8.6790 c3         1 OB9       0.164800
     28 C21          1.5290    -3.8540     7.7860 ca         1 OB9      -0.097000
     29 C22          2.6930    -4.5940     7.7170 ca         1 OB9      -0.091500
     30 C23          2.6750    -5.8650     7.1730 ca         1 OB9      -0.097000
     31 C24          1.4930    -6.4010     6.6980 ca         1 OB9      -0.091500
     32 C25          0.3230    -5.6690     6.7700 ca         1 OB9      -0.097000
     33 C26         -2.1980    -4.3230     9.2970 c3         1 OB9       0.553900
     34 F01         -1.4060    -5.4640     9.4690 f          1 OB9      -0.202967
     35 F02         -2.6890    -3.9050    10.5380 f          1 OB9      -0.202967
     36 F03         -3.2690    -4.6230     8.4490 f          1 OB9      -0.202967
     37 H1          -0.5410     0.0020    -0.9380 ha         1 OB9       0.116000
     38 H2           3.1720    -0.0000     1.1940 ha         1 OB9       0.116000
     39 H3           1.9540    -0.0020     3.3330 ha         1 OB9       0.108500
     40 H4          -1.7740     0.0050     1.1920 ha         1 OB9       0.108500
     41 H5           2.1830    -0.8860    -1.4730 ho         1 OB9       0.404000
     42 H6          -2.0770     1.2450     6.3760 h1         1 OB9       0.062700
     43 H7          -2.0500    -1.7850     3.4820 h1         1 OB9       0.069700
     44 H8           1.2590     1.8030     6.2420 ha         1 OB9       0.108000
     45 H9           2.4580     3.9490     6.1490 ha         1 OB9       0.116000
     46 H10          0.0800     5.1480     2.7960 ha         1 OB9       0.116000
     47 H11         -1.1250     3.0050     2.8740 ha         1 OB9       0.108000
     48 H12          1.5520     6.4980     4.9470 ho         1 OB9       0.404000
     49 H13          0.1850    -1.9900     5.0590 h1         1 OB9       0.092700
     50 H14          0.1790    -0.2920     6.6820 hc         1 OB9       0.031200
     51 H15         -1.3320    -0.9580     7.3710 hc         1 OB9       0.031200
     52 H16         -1.9680    -2.3230     8.5450 h1         1 OB9       0.057200
     53 H17         -0.5260    -2.9740     9.3360 h1         1 OB9       0.057200
     54 H18          1.5450    -2.8580     8.2120 ha         1 OB9       0.121500
     55 H19          3.6220    -4.1780     8.0880 ha         1 OB9       0.105500
     56 H20          3.5900    -6.4430     7.1170 ha         1 OB9       0.103000
     57 H21          1.4820    -7.3980     6.2750 ha         1 OB9       0.105500
     58 H22         -0.6030    -6.0900     6.3970 ha         1 OB9       0.121500
@<TRIPOS>BOND
     1     1     2 ar  
     2     1     6 ar  
     3     1    37 1   
     4     2     3 ar  
     5     2     7 1   
     6     3     4 ar  
     7     3    38 1   
     8     4     5 ar  
     9     4    39 1   
    10     5     6 ar  
    11     5     8 1   
    12     6    40 1   
    13     7    41 1   
    14     8     9 2   
    15     8    12 1   
    16     9    10 1   
    17     9    11 1   
    18    10    20 1   
    19    10    22 1   
    20    10    42 1   
    21    11    13 ar  
    22    11    17 ar  
    23    12    19 1   
    24    12    22 1   
    25    12    43 1   
    26    13    14 ar  
    27    13    44 1   
    28    14    15 ar  
    29    14    45 1   
    30    15    16 ar  
    31    15    18 1   
    32    16    17 ar  
    33    16    46 1   
    34    17    47 1   
    35    18    48 1   
    36    19    20 1   
    37    19    21 1   
    38    19    49 1   
    39    20    50 1   
    40    20    51 1   
    41    21    23 1   
    42    21    24 2   
    43    21    25 2   
    44    23    26 1   
    45    23    27 1   
    46    26    28 ar  
    47    26    32 ar  
    48    27    33 1   
    49    27    52 1   
    50    27    53 1   
    51    28    29 ar  
    52    28    54 1   
    53    29    30 ar  
    54    29    55 1   
    55    30    31 ar  
    56    30    56 1   
    57    31    32 ar  
    58    31    57 1   
    59    32    58 1   
    60    33    34 1   
    61    33    35 1   
    62    33    36 1   
@<TRIPOS>SUBSTRUCTURE
     1 OB9         1 TEMP              0 ****  ****    0 ROOT
