@<TRIPOS>MOLECULE
OBA
   20    20     1     0     0
SMALL
bcc


@<TRIPOS>ATOM
      1 C1           0.0000     0.0000     0.0000 ca         1 OBA      -0.120000
      2 C2           1.3810     0.0000     0.0000 ca         1 OBA      -0.162000
      3 C3           2.0770     0.0000     1.2020 ca         1 OBA      -0.027400
      4 C4           1.3680    -0.0050     2.4130 ca         1 OBA      -0.160600
      5 C5          -0.0280     0.0010     2.3980 ca         1 OBA      -0.058000
      6 C6          -0.7010     0.0000     1.1960 ca         1 OBA      -0.201000
      7 C10          2.0950    -0.0050     3.6960 c          1 OBA       0.981200
      8 O11          3.3050     0.1050     3.7080 o          1 OBA      -0.891800
      9 O12          1.4170    -0.1280     4.8540 o          1 OBA      -0.891800
     10 N13          3.4660    -0.0000     1.2040 ns         1 OBA      -0.025100
     11 C14          4.1420     0.6830     0.2600 c          1 OBA       0.466100
     12 O15          3.5380     1.2530    -0.6250 o          1 OBA      -0.688100
     13 C16          5.6330     0.7400     0.3010 c          1 OBA       0.921600
     14 O17          6.2370     0.1710     1.1860 o          1 OBA      -0.881800
     15 O18          6.3080     1.4220    -0.6410 o          1 OBA      -0.881800
     16 H1          -0.5380    -0.0000    -0.9400 ha         1 OBA       0.068000
     17 H2           1.9220     0.0020    -0.9390 ha         1 OBA       0.137000
     18 H5          -0.5810    -0.0010     3.3290 ha         1 OBA       0.114000
     19 H6          -1.7850     0.0020     1.1850 ha         1 OBA       0.068000
     20 H13          3.9650    -0.5430     1.8810 hn         1 OBA       0.231500
@<TRIPOS>BOND
     1     1     2 ar  
     2     1     6 ar  
     3     1    16 1   
     4     2     3 ar  
     5     2    17 1   
     6     3     4 ar  
     7     3    10 1   
     8     4     5 ar  
     9     4     7 1   
    10     5     6 ar  
    11     5    18 1   
    12     6    19 1   
    13     7     8 1   
    14     7     9 1   
    15    10    11 1   
    16    10    20 1   
    17    11    12 2   
    18    11    13 1   
    19    13    14 1   
    20    13    15 1   
@<TRIPOS>SUBSTRUCTURE
     1 OBA         1 TEMP              0 ****  ****    0 ROOT
