@<TRIPOS>MOLECULE
molecule
   51    55     1     0     0
SMALL
bcc


@<TRIPOS>ATOM
      1 C01          0.0000     0.0000     0.0000 ca         1 OBB       0.110100
      2 C02          1.3890     0.0000     0.0000 ca         1 OBB      -0.152500
      3 C03          2.0800     0.0000     1.1930 ca         1 OBB      -0.098500
      4 C04          1.3810     0.0010     2.4030 ca         1 OBB      -0.049800
      5 C05         -0.0170     0.0020     2.3980 ca         1 OBB      -0.098500
      6 C06         -0.6990     0.0070     1.2010 ca         1 OBB      -0.152500
      7 O01         -0.6770    -0.0000    -1.1780 oh         1 OBB      -0.521100
      8 C07          2.1150    -0.0050     3.6810 ce         1 OBB      -0.085400
      9 C08          2.1250    -0.9910     4.6120 cf         1 OBB      -0.083400
     10 C09          3.0400    -0.4960     5.7370 c3         1 OBB       0.199300
     11 C10          1.4040    -2.2740     4.5540 ca         1 OBB      -0.051800
     12 C11          1.7280    -3.2170     3.5740 ca         1 OBB      -0.097000
     13 C12          1.0510    -4.4150     3.5250 ca         1 OBB      -0.153000
     14 C13          0.0470    -4.6870     4.4450 ca         1 OBB       0.112100
     15 C14         -0.2790    -3.7540     5.4210 ca         1 OBB      -0.153000
     16 C15          0.3970    -2.5540     5.4830 ca         1 OBB      -0.097000
     17 O02         -0.6190    -5.8700     4.3910 oh         1 OBB      -0.521100
     18 C16          3.0280     1.0980     4.2240 c3         1 OBB       0.173300
     19 C17          4.4770     0.5410     4.0710 c3         1 OBB      -0.072400
     20 C18          4.4860    -0.5860     5.1600 c3         1 OBB      -0.271900
     21 O03          2.7980     0.9490     5.6690 os         1 OBB      -0.377600
     22 S01          5.7340    -0.2450     6.4330 s6         1 OBB       1.452500
     23 O04          7.0480    -0.1790     5.6690 os         1 OBB      -0.449800
     24 O05          5.5660     1.0660     6.9570 o          1 OBB      -0.609800
     25 O06          5.8850    -1.3650     7.2950 o          1 OBB      -0.609800
     26 C19          7.5180    -1.3900     5.2730 ca         1 OBB       0.092100
     27 C20          8.3480    -2.1220     6.1100 ca         1 OBB      -0.068000
     28 C21          8.8250    -3.3540     5.7050 ca         1 OBB      -0.006900
     29 C22          8.4750    -3.8580     4.4650 ca         1 OBB      -0.091000
     30 C23          7.6490    -3.1310     3.6290 ca         1 OBB      -0.115000
     31 C24          7.1660    -1.9010     4.0320 ca         1 OBB      -0.139000
     32 Br1          9.9560    -4.3520     6.8460 br         1 OBB      -0.069100
     33 H1           1.9300    -0.0030    -0.9390 ha         1 OBB       0.143000
     34 H2           3.1630    -0.0000     1.1920 ha         1 OBB       0.137500
     35 H3          -0.5630     0.0040     3.3340 ha         1 OBB       0.137500
     36 H4          -1.7820     0.0070     1.1960 ha         1 OBB       0.143000
     37 H5          -0.8360    -0.8890    -1.4490 ho         1 OBB       0.420000
     38 H6           2.8870    -0.9510     6.7080 h1         1 OBB       0.116700
     39 H7           2.5110    -3.0060     2.8560 ha         1 OBB       0.138500
     40 H8           1.3010    -5.1470     2.7660 ha         1 OBB       0.143500
     41 H9          -1.0610    -3.9710     6.1380 ha         1 OBB       0.143500
     42 H10          0.1420    -1.8260     6.2440 ha         1 OBB       0.138500
     43 H11         -1.3730    -5.7810     3.8320 ho         1 OBB       0.421000
     44 H12          2.8580     2.0910     3.8250 h1         1 OBB       0.116700
     45 H13          5.2130     1.3040     4.2940 hc         1 OBB       0.066700
     46 H14          4.6310     0.1260     3.0820 hc         1 OBB       0.066700
     47 H15          4.6570    -1.5540     4.7060 h1         1 OBB       0.112700
     48 H16          8.6220    -1.7270     7.0810 ha         1 OBB       0.171000
     49 H17          8.8520    -4.8230     4.1470 ha         1 OBB       0.152000
     50 H18          7.3750    -3.5290     2.6590 ha         1 OBB       0.145000
     51 H19          6.5190    -1.3320     3.3760 ha         1 OBB       0.143000
@<TRIPOS>BOND
     1    32    28 1
     2    28    27 ar
     3    28    29 ar
     4    27    26 ar
     5    29    30 ar
     6    26    23 1
     7    26    31 ar
     8    23    22 1
     9    25    22 2
    10    22    24 2
    11    22    20 1
    12    30    31 ar
    13    20    19 1
    14    20    10 1
    15    19    18 1
    16    10    21 1
    17    10     9 1
    18    21    18 1
    19    16    15 ar
    20    16    11 ar
    21    18     8 1
    22    15    14 ar
    23     9    11 1
    24     9     8 2
    25    11    12 ar
    26    14    17 1
    27    14    13 ar
    28    12    13 ar
    29     8     4 1
    30     4     5 ar
    31     4     3 ar
    32     5     6 ar
    33     3     2 ar
    34     6     1 ar
    35     2     1 ar
    36     1     7 1
    37     2    33 1
    38     3    34 1
    39     5    35 1
    40     6    36 1
    41     7    37 1
    42    10    38 1
    43    12    39 1
    44    13    40 1
    45    15    41 1
    46    16    42 1
    47    17    43 1
    48    18    44 1
    49    19    45 1
    50    19    46 1
    51    20    47 1
    52    27    48 1
    53    29    49 1
    54    30    50 1
    55    31    51 1
@<TRIPOS>SUBSTRUCTURE
     1 OBB         1 TEMP              0 ****  ****    0 ROOT
