@<TRIPOS>MOLECULE
molecule
   51    55     1     0     0
SMALL
bcc


@<TRIPOS>ATOM
      1 O01          0.0000     0.0000     0.0000 o          1 OBC      -0.614300
      2 O02          2.1550    -0.9110    -0.8080 o          1 OBC      -0.614300
      3 O03          1.7960     1.3710    -0.5460 os         1 OBC      -0.442800
      4 S01          1.4220     0.0000     0.0000 s6         1 OBC       1.450500
      5 C01          5.1830     0.3710     5.1560 ca         1 OBC      -0.097500
      6 C02          5.9830     0.5740     6.2600 ca         1 OBC      -0.153000
      7 C03          6.0950    -0.4130     7.2300 ca         1 OBC       0.110100
      8 C04          5.4020    -1.6090     7.0940 ca         1 OBC      -0.153000
      9 C05          4.6000    -1.8210     5.9930 ca         1 OBC      -0.097500
     10 C06          1.2130    -0.0210     5.7360 ca         1 OBC      -0.098000
     11 C07          0.3640    -0.0100     6.8220 ca         1 OBC      -0.154000
     12 C08         -0.3340    -1.1590     7.1730 ca         1 OBC       0.110100
     13 C09         -0.1810    -2.3220     6.4310 ca         1 OBC      -0.154000
     14 C10          0.6650    -2.3430     5.3430 ca         1 OBC      -0.098000
     15 C11         -0.1960     2.6620    -0.7060 ca         1 OBC      -0.067000
     16 C12         -0.9930     3.6870    -0.2330 ca         1 OBC      -0.129000
     17 C13         -0.5850     4.4380     0.8550 ca         1 OBC      -0.091000
     18 C14          0.6220     4.1660     1.4720 ca         1 OBC      -0.159000
     19 C15          1.4230     3.1420     1.0030 ca         1 OBC       0.119900
     20 C16          1.0130     2.3820    -0.0860 ca         1 OBC       0.052100
     21 C17          1.3710    -1.1900     4.9880 ca         1 OBC      -0.048800
     22 C18          4.4790    -0.8280     5.0160 ca         1 OBC      -0.051800
     23 O06          3.0810    -2.0960     1.8530 os         1 OBC      -0.380600
     24 C19          4.0730    -1.1510     2.3780 c3         1 OBC       0.171300
     25 C20          3.6230    -1.0500     3.8390 ce         1 OBC      -0.078400
     26 C21          3.6000     0.1790     1.7140 c3         1 OBC      -0.069400
     27 C22          2.0580     0.0000     1.6990 c3         1 OBC      -0.262900
     28 C23          1.8890    -1.4040     2.3570 c3         1 OBC       0.195300
     29 C24          2.2770    -1.2060     3.8250 cf         1 OBC      -0.087400
     30 H1          -2.0340    -0.8920     7.9640 ho         1 OBC       0.421000
     31 H2           6.3760     0.1890     9.0040 ho         1 OBC       0.421000
     32 H4           6.5290     1.5040     6.3690 ha         1 OBC       0.143500
     33 H5           5.4960    -2.3790     7.8510 ha         1 OBC       0.143500
     34 H6           4.0580    -2.7530     5.8880 ha         1 OBC       0.139000
     35 H7           1.7570     0.8760     5.4640 ha         1 OBC       0.140000
     36 H8           0.2410     0.8960     7.4030 ha         1 OBC       0.142500
     37 H9          -0.7290    -3.2160     6.7070 ha         1 OBC       0.142500
     38 H10          0.7840    -3.2520     4.7650 ha         1 OBC       0.140000
     39 H11         -0.5170     2.0750    -1.5580 ha         1 OBC       0.166000
     40 H12         -1.9380     3.9040    -0.7160 ha         1 OBC       0.149000
     41 H13         -1.2130     5.2410     1.2230 ha         1 OBC       0.145000
     42 H14          0.9390     4.7560     2.3240 ha         1 OBC       0.154000
     43 H15          5.1090    -1.4210     2.2170 h1         1 OBC       0.116700
     44 H17          3.8840     1.0340     2.3150 hc         1 OBC       0.071200
     45 H18          3.9880     0.2660     0.7060 hc         1 OBC       0.071200
     46 H19          1.5750     0.7660     2.2950 h1         1 OBC       0.113700
     47 H20          0.9450    -1.9050     2.1770 h1         1 OBC       0.114700
     48 H3           5.0950     1.1430     4.4010 ha         1 OBC       0.139000
     49 O04         -1.1690    -1.1430     8.2440 oh         1 OBC      -0.522100
     50 O05          6.8840    -0.2090     8.3170 oh         1 OBC      -0.522100
     51 F01          2.6040     2.8760     1.6050 f          1 OBC      -0.133900
@<TRIPOS>BOND
     1    18    17 ar
     2    18    19 ar
     3    51    19 1
     4    17    16 ar
     5    19    20 ar
     6    16    15 ar
     7    20    15 ar
     8    20     3 1
     9     1     4 2
    10     3     4 1
    11     4     2 2
    12     4    27 1
    13    27    26 1
    14    27    28 1
    15    26    24 1
    16    28    23 1
    17    28    29 1
    18    23    24 1
    19    24    25 1
    20    10    11 ar
    21    10    21 ar
    22    11    12 ar
    23    29    21 1
    24    29    25 2
    25    21    14 ar
    26    12    49 1
    27    12    13 ar
    28    14    13 ar
    29    25    22 1
    30    22     9 ar
    31    22     5 ar
    32     9     8 ar
    33     5     6 ar
    34     8     7 ar
    35     6     7 ar
    36     7    50 1
    37    49    30 1
    38    50    31 1
    39     5    48 1
    40     6    32 1
    41     8    33 1
    42     9    34 1
    43    10    35 1
    44    11    36 1
    45    13    37 1
    46    14    38 1
    47    15    39 1
    48    16    40 1
    49    17    41 1
    50    18    42 1
    51    24    43 1
    52    26    44 1
    53    26    45 1
    54    27    46 1
    55    28    47 1
@<TRIPOS>SUBSTRUCTURE
     1 OBC         1 TEMP              0 ****  ****    0 ROOT
