@<TRIPOS>MOLECULE
molecule
   56    59     1     0     0
SMALL
bcc


@<TRIPOS>ATOM
      1 C10          0.0000     0.0000     0.0000 cc         1 OBD       0.255600
      2 N12          1.7300     0.0000     1.3000 na         1 OBD       0.131400
      3 C13          3.1100     0.0000     1.7940 c3         1 OBD       0.077000
      4 C20          5.0040    -1.4500     2.4710 ca         1 OBD      -0.096300
      5 C21          5.1300    -1.5960     3.8500 ca         1 OBD      -0.123000
      6 C22          6.3560    -1.6100     4.4450 ca         1 OBD      -0.104000
      7 C24          8.7930    -1.4900     4.2350 ca         1 OBD      -0.114000
      8 C26          9.7630    -1.1900     2.0630 ca         1 OBD      -0.119000
      9 C28          7.3820    -1.3200     2.2540 ca         1 OBD      -0.035000
     10 O18          3.8320     4.3520     0.1720 o          1 OBD      -0.045700
     11 N17          4.1860     3.1870     0.1390 n2         1 OBD       0.029700
     12 O16          2.6300     2.6000     1.6020 o          1 OBD      -0.454100
     13 C14          3.9880     0.8260     0.8530 c3         1 OBD      -0.167400
     14 C19          3.6320    -1.4370     1.8480 c3         1 OBD      -0.050100
     15 C29          6.1020    -1.3130     1.6770 ca         1 OBD      -0.118000
     16 C27          8.5390    -1.1800     1.4680 ca         1 OBD      -0.118000
     17 C25          9.8900    -1.3600     3.4400 ca         1 OBD      -0.120000
     18 C23          7.5120    -1.4780     3.6570 ca         1 OBD      -0.034000
     19 C11          1.3540     0.0000     0.0000 cd         1 OBD      -0.291600
     20 N30          0.6690     0.0020     2.0270 nd         1 OBD      -0.183800
     21 N31         -0.3800     0.0020     1.2830 nc         1 OBD      -0.349000
     22 C09         -0.9000     0.0060    -1.2080 c3         1 OBD       0.105700
     23 N08         -1.2900    -1.3680    -1.5320 ns         1 OBD      -0.582900
     24 C06         -2.1000    -1.6090    -2.5830 c          1 OBD       0.675700
     25 O07         -2.5080    -0.6860    -3.2600 o          1 OBD      -0.611100
     26 C05         -2.4930    -2.9960    -2.9100 ca         1 OBD      -0.152600
     27 C04         -3.3320    -3.2480    -3.9970 ca         1 OBD      -0.082000
     28 C03         -3.6950    -4.5460    -4.2980 ca         1 OBD      -0.140000
     29 C02         -3.2290    -5.5950    -3.5240 ca         1 OBD      -0.059300
     30 C01         -3.6300    -7.0080    -3.8580 c3         1 OBD      -0.051800
     31 C33         -2.3980    -5.3510    -2.4460 ca         1 OBD      -0.140000
     32 C32         -2.0230    -4.0590    -2.1380 ca         1 OBD      -0.082000
     33 H13          3.1380     0.4330     2.7870 h1         1 OBD       0.110700
     34 H21          4.2410    -1.7020     4.4590 ha         1 OBD       0.137000
     35 H22          6.4390    -1.7240     5.5190 ha         1 OBD       0.140000
     36 H24          8.9070    -1.6210     5.3040 ha         1 OBD       0.137000
     37 H26         10.6520    -1.0890     1.4530 ha         1 OBD       0.133000
     38 H14          5.0220     0.7540     1.1680 hc         1 OBD       0.096700
     39 H14A         3.8910     0.4480    -0.1570 hc         1 OBD       0.096700
     40 H19          3.6870    -1.8390     0.8440 hc         1 OBD       0.068700
     41 H19A         2.9590    -2.0430     2.4440 hc         1 OBD       0.068700
     42 H29          5.9880    -1.2010     0.6060 ha         1 OBD       0.131000
     43 H27          8.4560    -1.0470     0.3960 ha         1 OBD       0.134000
     44 H25         10.8760    -1.3630     3.8880 ha         1 OBD       0.133000
     45 H11          2.0040    -0.0010    -0.8660 h4         1 OBD       0.180000
     46 H09         -1.7860     0.5920    -0.9950 h1         1 OBD       0.068200
     47 H09A        -0.3740     0.4400    -2.0490 h1         1 OBD       0.068200
     48 HN08        -0.9630    -2.1270    -0.9680 hn         1 OBD       0.319500
     49 H04         -3.6970    -2.4280    -4.6030 ha         1 OBD       0.141500
     50 H03         -4.3460    -4.7430    -5.1410 ha         1 OBD       0.135000
     51 H01         -4.4590    -6.9930    -4.5550 hc         1 OBD       0.046367
     52 H01A        -3.9270    -7.5230    -2.9530 hc         1 OBD       0.046367
     53 H01B        -2.7900    -7.5240    -4.3080 hc         1 OBD       0.046367
     54 H33         -2.0350    -6.1770    -1.8450 ha         1 OBD       0.135000
     55 H32         -1.3720    -3.8700    -1.2930 ha         1 OBD       0.141500
     56 C15          3.5510     2.2680     0.8930 c          1 OBD       0.439100
@<TRIPOS>BOND
     1     1    19 2
     2     1    21 1
     3     1    22 1
     4     2     3 1
     5     2    19 1
     6     2    20 1
     7     3    13 1
     8     3    14 1
     9    56    11 1
    10    56    12 2
    11    56    13 1
    12     4     5 ar
    13     4    14 1
    14     4    15 ar
    15     5     6 ar
    16     6    18 ar
    17     7    17 ar
    18     7    18 ar
    19     8    16 ar
    20     8    17 ar
    21     9    15 ar
    22     9    16 ar
    23     9    18 ar
    24    10    11 2
    25    20    21 2
    26    22    23 1
    27    23    24 1
    28    24    25 2
    29    24    26 1
    30    26    27 ar
    31    26    32 ar
    32    27    28 ar
    33    28    29 ar
    34    29    30 1
    35    29    31 ar
    36    31    32 ar
    37     3    33 1
    38     5    34 1
    39     6    35 1
    40     7    36 1
    41     8    37 1
    42    13    38 1
    43    13    39 1
    44    14    40 1
    45    14    41 1
    46    15    42 1
    47    16    43 1
    48    17    44 1
    49    19    45 1
    50    22    46 1
    51    22    47 1
    52    23    48 1
    53    27    49 1
    54    28    50 1
    55    30    51 1
    56    30    52 1
    57    30    53 1
    58    31    54 1
    59    32    55 1
@<TRIPOS>SUBSTRUCTURE
     1 OBD         1 TEMP              0 ****  ****    0 ROOT
