@<TRIPOS>MOLECULE
OBE
   41    43     1     0     0
SMALL
bcc


@<TRIPOS>ATOM
      1 C1           0.0000     0.0000     0.0000 c3         1 OBE       0.029500
      2 C2           1.5370     0.0000     0.0000 c3         1 OBE      -0.212700
      3 C3           2.0320     0.0000     1.4490 c3         1 OBE       0.208100
      4 C4           1.3700     1.1940     2.2270 c3         1 OBE      -0.071400
      5 C5          -0.1550     1.0880     2.0620 c3         1 OBE      -0.010500
      6 C6          -0.5760    -0.3690     2.3540 c3         1 OBE      -0.045400
      7 C7          -0.4740    -1.0910     0.9940 c3         1 OBE      -0.054400
      8 C9           5.6660    -0.2610     2.4820 ca         1 OBE      -0.135600
      9 C10          6.4140    -0.8240     3.5170 ca         1 OBE      -0.081000
     10 C11          7.7930    -0.6900     3.5220 ca         1 OBE       0.098100
     11 C12          8.4260     0.0140     2.5080 ca         1 OBE      -0.106000
     12 C13          7.6860     0.5770     1.4840 ca         1 OBE      -0.101000
     13 C14          6.3130     0.4450     1.4650 ca         1 OBE      -0.057000
     14 C15          2.0420     1.2310    -0.7080 c          1 OBE       0.980600
     15 C16         -1.8970     1.4620     0.4090 c3         1 OBE       0.022100
     16 N1          -0.4550     1.2730     0.6170 nx         1 OBE      -0.015400
     17 O1           3.4770     0.1420     1.4670 os         1 OBE      -0.328900
     18 O2           3.6370    -1.0210     3.3500 o          1 OBE      -0.623000
     19 O3           3.1080     1.7270    -0.3830 o          1 OBE      -0.848300
     20 O4           1.3850     1.7300    -1.6050 o          1 OBE      -0.848300
     21 O5           8.5250    -1.2420     4.5260 oh         1 OBE      -0.499100
     22 H1          -0.4110    -0.1440    -0.9920 hx         1 OBE       0.098700
     23 H2           1.9000    -0.8860    -0.5080 hc         1 OBE       0.071700
     24 H3           1.7570    -0.9340     1.9230 h1         1 OBE       0.030700
     25 H41          1.7170     2.1350     1.8170 hc         1 OBE       0.062200
     26 H42          1.6290     1.1350     3.2770 hc         1 OBE       0.062200
     27 H5          -0.6860     1.7990     2.6830 hx         1 OBE       0.071700
     28 H61          0.1000    -0.8200     3.0710 hc         1 OBE       0.048700
     29 H62         -1.5940    -0.4010     2.7230 hc         1 OBE       0.048700
     30 H71          0.2510    -1.8940     1.0460 hc         1 OBE       0.046200
     31 H72         -1.4430    -1.4750     0.6980 hc         1 OBE       0.046200
     32 H10          5.9180    -1.3730     4.3080 ha         1 OBE       0.131000
     33 H12          9.5040     0.1200     2.5160 ha         1 OBE       0.111000
     34 H13          8.1870     1.1250     0.6950 ha         1 OBE       0.111000
     35 H14          5.7370     0.8870     0.6610 ha         1 OBE       0.151000
     36 H161        -2.2100     2.3890     0.8750 hx         1 OBE       0.058367
     37 H162        -2.1060     1.5030    -0.6530 hx         1 OBE       0.058367
     38 H163        -2.4380     0.6340     0.8520 hx         1 OBE       0.058367
     39 HN1          0.0600     2.0470     0.2470 hn         1 OBE       0.315800
     40 HO5          8.5790    -0.6350     5.2460 ho         1 OBE       0.401000
     41 C8           4.1970    -0.4070     2.4640 c          1 OBE       0.716700
@<TRIPOS>BOND
     1     1     2 1   
     2     1     7 1   
     3     1    16 1   
     4     1    22 1   
     5     2     3 1   
     6     2    14 1   
     7     2    23 1   
     8     3     4 1   
     9     3    17 1   
    10     3    24 1   
    11     4     5 1   
    12     4    25 1   
    13     4    26 1   
    14     5     6 1   
    15     5    16 1   
    16     5    27 1   
    17     6     7 1   
    18     6    28 1   
    19     6    29 1   
    20     7    30 1   
    21     7    31 1   
    22     8     9 ar  
    23     8    13 ar  
    24     8    41 1   
    25     9    10 ar  
    26     9    32 1   
    27    10    11 ar  
    28    10    21 1   
    29    11    12 ar  
    30    11    33 1   
    31    12    13 ar  
    32    12    34 1   
    33    13    35 1   
    34    14    19 1   
    35    14    20 1   
    36    15    16 1   
    37    15    36 1   
    38    15    37 1   
    39    15    38 1   
    40    16    39 1   
    41    17    41 1   
    42    18    41 2   
    43    21    40 1   
@<TRIPOS>SUBSTRUCTURE
     1 OBE         1 TEMP              0 ****  ****    0 ROOT
