@<TRIPOS>MOLECULE
molecule
   29    31     1     0     0
SMALL
bcc


@<TRIPOS>ATOM
      1 C1           0.0000     0.0000     0.0000 ca         1 OBG       0.983900
      2 N1          -0.6700     0.0010    -1.2130 nv         1 OBG      -1.056500
      3 O1           3.3680    -0.0000     1.1230 os         1 OBG      -0.408100
      4 C2           2.0140     0.0000     1.1350 ca         1 OBG       0.758600
      5 N2           1.3270     0.0000     0.0000 nb         1 OBG      -0.846000
      6 C3           4.0060    -0.0010    -0.1560 c3         1 OBG       0.190700
      7 N3           1.6640     0.0010     3.6560 nc         1 OBG      -0.556100
      8 C4           5.5020    -0.0020     0.0280 ca         1 OBG      -0.099300
      9 N4          -0.5190     0.0120     3.6060 na         1 OBG      -0.363000
     10 C5           6.1870    -1.2000     0.1140 ca         1 OBG      -0.101000
     11 N5          -0.7050     0.0060     1.1190 nb         1 OBG      -0.789000
     12 C6           7.5600    -1.1990     0.2830 ca         1 OBG      -0.133000
     13 C7           8.2460    -0.0030     0.3680 ca         1 OBG      -0.117000
     14 C8           7.5610     1.1950     0.2810 ca         1 OBG      -0.133000
     15 C9           6.1890     1.1950     0.1070 ca         1 OBG      -0.101000
     16 C10          1.3070     0.0000     2.3470 ca         1 OBG      -0.173200
     17 C11          0.5940     0.0090     4.3950 cd         1 OBG       0.411700
     18 C12         -0.0960     0.0060     2.3010 ca         1 OBG       0.471800
     19 HN1         -0.9190     0.8680    -1.6460 hn         1 OBG       0.445800
     20 HN1A        -0.9220    -0.8660    -1.6450 hn         1 OBG       0.445800
     21 H3           3.7100    -0.8860    -0.7070 h1         1 OBG       0.055700
     22 H3A          3.7110     0.8830    -0.7080 h1         1 OBG       0.055700
     23 HN4         -1.4690     0.0190     3.9210 hn         1 OBG       0.314700
     24 H5           5.6490    -2.1380     0.0480 ha         1 OBG       0.134000
     25 H6           8.0970    -2.1380     0.3510 ha         1 OBG       0.131000
     26 H7           9.3210    -0.0030     0.5020 ha         1 OBG       0.130000
     27 H8           8.0990     2.1330     0.3450 ha         1 OBG       0.131000
     28 H9           5.6520     2.1340     0.0400 ha         1 OBG       0.134000
     29 H11          0.5870     0.0140     5.4790 h5         1 OBG       0.080800
@<TRIPOS>BOND
     1     1     2 1
     2     1     5 ar
     3     1    11 ar
     4     3     4 1
     5     3     6 1
     6     4     5 ar
     7     4    16 ar
     8     6     8 1
     9     7    16 1
    10     7    17 2
    11     8    10 ar
    12     8    15 ar
    13     9    17 1
    14     9    18 1
    15    10    12 ar
    16    11    18 ar
    17    12    13 ar
    18    13    14 ar
    19    14    15 ar
    20    16    18 ar
    21     2    19 1
    22     2    20 1
    23     6    21 1
    24     6    22 1
    25     9    23 1
    26    10    24 1
    27    12    25 1
    28    13    26 1
    29    14    27 1
    30    15    28 1
    31    17    29 1
@<TRIPOS>SUBSTRUCTURE
     1 OBG         1 TEMP              0 ****  ****    0 ROOT
