@<TRIPOS>MOLECULE
OBH
   53    57     1     0     0
SMALL
bcc


@<TRIPOS>ATOM
      1 CAN         0.3030   -0.4520    0.1100 ca        1 OBH     -0.078500
      2 CAJ         1.6770   -0.2420    0.0700 ca        1 OBH     -0.187000
      3 CAW         2.2540    0.6980    0.9360 ca        1 OBH      0.133100
      4 OAC         3.6040    0.9580    0.9600 oh        1 OBH     -0.494100
      5 CAK         1.4590    1.4280    1.8370 ca        1 OBH     -0.187000
      6 CAO         0.0880    1.2100    1.8560 ca        1 OBH     -0.078500
      7 CAZ        -0.5090    0.2680    0.9990 ca        1 OBH     -0.078800
      8 CAU        -1.9360    0.0790    1.0210 ce        1 OBH     -0.065400
      9 CAV        -2.7320   -0.9980    0.7480 cf        1 OBH     -0.070400
     10 CBA        -2.4380   -2.3630    0.3920 ca        1 OBH     -0.082800
     11 CAP        -1.3410   -3.0320    0.9570 ca        1 OBH     -0.076500
     12 CAL        -1.0730   -4.3580    0.6360 ca        1 OBH     -0.188000
     13 CAX        -1.9070   -5.0280   -0.2700 ca        1 OBH      0.134100
     14 OAD        -1.7060   -6.3370   -0.6390 oh        1 OBH     -0.493100
     15 CAM        -3.0060   -4.3730   -0.8530 ca        1 OBH     -0.188000
     16 CAQ        -3.2630   -3.0510   -0.5150 ca        1 OBH     -0.076500
     17 CBC        -4.1740   -0.5020    0.9440 c3        1 OBH      0.194300
     18 OAS        -4.0500    0.8950    0.5500 os        1 OBH     -0.402600
     19 CBB        -2.8990    1.2190    1.3960 c3        1 OBH      0.155300
     20 CAR        -3.4680    0.8660    2.7990 c3        1 OBH     -0.068400
     21 CBD        -4.3580   -0.3620    2.4960 c3        1 OBH     -0.345900
     22 SBE        -5.9800   -0.2210    2.9810 s6        1 OBH      1.587500
     23 OAA        -6.2680    0.9750    3.6090 o         1 OBH     -0.660300
     24 OAB        -6.8530   -0.7440    2.0450 o         1 OBH     -0.660300
     25 OAT        -5.9280   -1.3690    4.2000 os        1 OBH     -0.573500
     26 CAY        -7.1130   -1.7870    4.8640 c3        1 OBH      0.261500
     27 CAH        -6.8880   -3.1800    5.3650 c2        1 OBH     -0.184700
     28 CAF        -7.2880   -3.5740    6.5770 c2        1 OBH     -0.150200
     29 CAE        -7.9370   -2.6670    7.5560 c3        1 OBH     -0.027000
     30 CAG        -7.8650   -1.2360    7.1640 c2        1 OBH     -0.150200
     31 CAI        -7.4690   -0.8260    5.9560 c2        1 OBH     -0.184700
     32 H1         -0.1590   -1.1910   -0.5660 ha        1 OBH      0.141500
     33 H2          2.3040   -0.8060   -0.6350 ha        1 OBH      0.146000
     34 H3          4.0270    0.4080    0.2840 ho        1 OBH      0.422000
     35 H4          1.9310    2.1590    2.5070 ha        1 OBH      0.146000
     36 H5         -0.5410    1.7800    2.5570 ha        1 OBH      0.141500
     37 H6         -0.6870   -2.4970    1.6630 ha        1 OBH      0.143000
     38 H7         -0.2160   -4.8760    1.0890 ha        1 OBH      0.146500
     39 H8         -0.9320   -6.6680   -0.1600 ho        1 OBH      0.421000
     40 H9         -3.6450   -4.9150   -1.5640 ha        1 OBH      0.146500
     41 H10        -4.1210   -2.5340   -0.9730 ha        1 OBH      0.143000
     42 H11        -4.9940   -0.9910    0.3850 h1        1 OBH      0.130700
     43 H12        -2.5780    2.2590    1.2130 h1        1 OBH      0.114700
     44 H13        -2.6540    0.6180    3.5180 hc        1 OBH      0.078700
     45 H14        -4.0700    1.7170    3.2030 hc        1 OBH      0.078700
     46 H15        -3.8970   -1.2680    2.9820 h1        1 OBH      0.151700
     47 H18        -6.3740   -3.8520    4.6620 ha        1 OBH      0.146000
     48 H19        -7.1500   -4.6130    6.9120 ha        1 OBH      0.128000
     49 H20        -9.0180   -2.9630    7.6740 hc        1 OBH      0.062700
     50 H21        -7.4490   -2.7990    8.5620 hc        1 OBH      0.062700
     51 H22        -8.1590   -0.5160    7.9440 ha        1 OBH      0.128000
     52 H23        -7.3880    0.2410    5.6920 ha        1 OBH      0.146000
     53 H24        -7.9530   -1.8090    4.1010 h1        1 OBH      0.062700
@<TRIPOS>BOND
     1    1    2 ar  
     2    1    7 ar  
     3    1   32 1   
     4    2    3 ar  
     5    2   33 1   
     6    3    4 1   
     7    3    5 ar  
     8    4   34 1   
     9    5    6 ar  
    10    5   35 1   
    11    6    7 ar  
    12    6   36 1   
    13    7    8 1   
    14    8    9 2   
    15    8   19 1   
    16    9   10 1   
    17    9   17 1   
    18   10   11 ar  
    19   10   16 ar  
    20   11   12 ar  
    21   11   37 1   
    22   12   13 ar  
    23   12   38 1   
    24   13   14 1   
    25   13   15 ar  
    26   14   39 1   
    27   15   16 ar  
    28   15   40 1   
    29   16   41 1   
    30   17   18 1   
    31   17   21 1   
    32   17   42 1   
    33   18   19 1   
    34   19   20 1   
    35   19   43 1   
    36   20   21 1   
    37   20   44 1   
    38   20   45 1   
    39   21   22 1   
    40   21   46 1   
    41   22   23 2   
    42   22   24 2   
    43   22   25 1   
    44   25   26 1   
    45   26   27 1   
    46   26   31 1   
    47   26   53 1   
    48   27   28 2   
    49   27   47 1   
    50   28   29 1   
    51   28   48 1   
    52   29   30 1   
    53   29   49 1   
    54   29   50 1   
    55   30   31 2   
    56   30   51 1   
    57   31   52 1   
@<TRIPOS>SUBSTRUCTURE
     1 OBH         1 TEMP              0 ****  ****    0 ROOT
