@<TRIPOS>MOLECULE
molecule
   53    57     1     0     0
SMALL
bcc


@<TRIPOS>ATOM
      1 CAN          0.0000     0.0000     0.0000 ca         1 OBH      -0.099000
      2 CAJ          1.3780     0.0000     0.0000 ca         1 OBH      -0.153000
      3 CAW          2.0760     0.0000     1.2010 ca         1 OBH       0.109100
      4 OAC          3.4350     0.0020     1.1950 oh         1 OBH      -0.521100
      5 CAK          1.3880    -0.0010     2.4080 ca         1 OBH      -0.153000
      6 CAO          0.0110    -0.0010     2.4190 ca         1 OBH      -0.099000
      7 CAZ         -0.6960    -0.0010     1.2130 ca         1 OBH      -0.048800
      8 CAU         -2.1690    -0.0010     1.2190 ce         1 OBH      -0.084400
      9 CAV         -2.9870    -0.9820     0.7640 cf         1 OBH      -0.084400
     10 CBA         -2.5850    -2.2660     0.1640 ca         1 OBH      -0.050800
     11 CAP         -1.8970    -3.2130     0.9280 ca         1 OBH      -0.097500
     12 CAL         -1.5220    -4.4120     0.3610 ca         1 OBH      -0.154000
     13 CAX         -1.8270    -4.6800    -0.9670 ca         1 OBH       0.111100
     14 OAD         -1.4550    -5.8630    -1.5220 oh         1 OBH      -0.521100
     15 CAM         -2.5110    -3.7430    -1.7300 ca         1 OBH      -0.154000
     16 CAQ         -2.8950    -2.5430    -1.1720 ca         1 OBH      -0.097500
     17 CBC         -4.4160    -0.4840     1.0040 c3         1 OBH       0.195300
     18 OAS         -4.2310     0.9620     0.8310 os         1 OBH      -0.380600
     19 CBB         -3.0880     1.1040     1.7450 c3         1 OBH       0.173300
     20 CAR         -3.6890     0.5370     3.0690 c3         1 OBH      -0.070400
     21 CBD         -4.6250    -0.5770     2.5470 c3         1 OBH      -0.273900
     22 SBE         -6.3520    -0.2370     2.9880 s6         1 OBH       1.465500
     23 OAA         -6.6730     1.1240     2.7340 o          1 OBH      -0.623800
     24 OAB         -7.1980    -1.2850     2.5360 o          1 OBH      -0.623800
     25 OAT         -6.3860    -0.3540     4.5050 os         1 OBH      -0.540500
     26 CAY         -6.3260    -1.6990     4.9850 c3         1 OBH       0.257500
     27 CAH         -5.5040    -1.7370     6.2380 c2         1 OBH      -0.196700
     28 CAF         -6.0290    -1.7880     7.4240 c2         1 OBH      -0.121700
     29 CAE         -7.5110    -1.8160     7.6560 c3         1 OBH      -0.028000
     30 CAG         -8.2440    -2.2470     6.4220 c2         1 OBH      -0.121700
     31 CAI         -7.7190    -2.1940     5.2360 c2         1 OBH      -0.196700
     32 H1          -0.5430     0.0000    -0.9370 ha         1 OBH       0.138500
     33 H2           1.9190     0.0000    -0.9390 ha         1 OBH       0.143000
     34 H3           3.7500    -0.8870     1.1930 ho         1 OBH       0.420000
     35 H4           1.9370    -0.0010     3.3420 ha         1 OBH       0.143000
     36 H5          -0.5240    -0.0020     3.3620 ha         1 OBH       0.138500
     37 H6          -1.6580    -3.0040     1.9640 ha         1 OBH       0.139000
     38 H7          -0.9880    -5.1470     0.9520 ha         1 OBH       0.143000
     39 H8          -0.5960    -5.7770    -1.9000 ho         1 OBH       0.420000
     40 H9          -2.7480    -3.9580    -2.7650 ha         1 OBH       0.143000
     41 H10         -3.4280    -1.8130    -1.7680 ha         1 OBH       0.139000
     42 H11         -5.1860    -0.9350     0.3900 h1         1 OBH       0.117700
     43 H12         -2.6550     2.0950     1.8040 h1         1 OBH       0.116700
     44 H13         -4.2520     1.2990     3.5950 hc         1 OBH       0.067200
     45 H14         -2.9110     0.1240     3.7000 hc         1 OBH       0.067200
     46 H15         -4.3150    -1.5450     2.9200 h1         1 OBH       0.105700
     47 H18         -4.4240    -1.7220     6.1500 ha         1 OBH       0.142000
     48 H19         -5.3700    -1.8100     8.2830 ha         1 OBH       0.130000
     49 H20         -7.7290    -2.5110     8.4580 hc         1 OBH       0.069700
     50 H21         -7.8440    -0.8250     7.9380 hc         1 OBH       0.069700
     51 H22         -9.2570    -2.6190     6.5240 ha         1 OBH       0.130000
     52 H23         -8.3120    -2.5210     4.3910 ha         1 OBH       0.142000
     53 H24         -5.8580    -2.3270     4.2370 h1         1 OBH       0.056700
@<TRIPOS>BOND
     1     1     2 ar
     2     1     7 ar
     3     2     3 ar
     4     3     4 1
     5     3     5 ar
     6     5     6 ar
     7     6     7 ar
     8     7     8 1
     9     8     9 2
    10     8    19 1
    11     9    10 1
    12     9    17 1
    13    10    11 ar
    14    10    16 ar
    15    11    12 ar
    16    12    13 ar
    17    13    14 1
    18    13    15 ar
    19    15    16 ar
    20    17    18 1
    21    17    21 1
    22    18    19 1
    23    19    20 1
    24    20    21 1
    25    21    22 1
    26    22    23 2
    27    22    24 2
    28    22    25 1
    29    25    26 1
    30    26    27 1
    31    26    31 1
    32    27    28 2
    33    28    29 1
    34    29    30 1
    35    30    31 2
    36     1    32 1
    37     2    33 1
    38     4    34 1
    39     5    35 1
    40     6    36 1
    41    11    37 1
    42    12    38 1
    43    14    39 1
    44    15    40 1
    45    16    41 1
    46    17    42 1
    47    19    43 1
    48    20    44 1
    49    20    45 1
    50    21    46 1
    51    27    47 1
    52    28    48 1
    53    29    49 1
    54    29    50 1
    55    30    51 1
    56    31    52 1
    57    26    53 1
@<TRIPOS>SUBSTRUCTURE
     1 OBH         1 TEMP              0 ****  ****    0 ROOT
