@<TRIPOS>MOLECULE
OBI
   37    40     1     0     0
SMALL
bcc


@<TRIPOS>ATOM
      1 O3           0.0000     0.0000     0.0000 oh         1 OBI      -0.146000
      2 N4           1.4160     0.0000     0.0000 n2         1 OBI       0.177500
      3 C14          2.0630     0.0000     1.1200 c2         1 OBI      -0.233500
      4 C11          3.5400     0.0010     1.1200 c3         1 OBI      -0.027500
      5 C10          4.2600     0.0010     2.3200 c2         1 OBI      -0.046000
      6 C9           5.6380     0.0010     2.2740 c2         1 OBI      -0.203750
      7 C12          4.2600    -0.0060    -0.0810 c2         1 OBI      -0.046000
      8 C13          5.6390     0.0000    -0.0340 c2         1 OBI      -0.203750
      9 N3           6.2770     0.0010     1.1200 n3         1 OBI       0.536000
     10 C8           7.7430     0.0020     1.1200 c3         1 OBI       0.003000
     11 O2           8.2190    -1.3460     1.1210 os         1 OBI      -0.267000
     12 C7           9.6460    -1.2790     1.1210 c3         1 OBI       0.003000
     13 N2          10.1990    -2.6360     1.1210 n3         1 OBI       0.536000
     14 C4          10.4390    -3.2280    -0.0320 c2         1 OBI      -0.203750
     15 C3          10.9610    -4.5050    -0.0780 c2         1 OBI      -0.046000
     16 C5          10.4450    -3.2250     2.2750 c2         1 OBI      -0.203750
     17 C6          10.9600    -4.5040     2.3220 c2         1 OBI      -0.046000
     18 C2          11.2320    -5.1700     1.1230 c3         1 OBI      -0.027500
     19 C1          11.7890    -6.5390     1.1230 c2         1 OBI      -0.233500
     20 N1          12.0330    -7.1370     2.2420 n2         1 OBI       0.177500
     21 O1          12.5670    -8.4490     2.2430 oh         1 OBI      -0.146000
     22 HO3         -0.3140     0.1610    -0.8740 ho         1 OBI       0.240000
     23 H14          2.6750    -0.8740     0.9340 DU         1 OBI       0.213000
     24 H10          3.7420     0.0010     3.2720 ha         1 OBI       0.171750
     25 H9           6.2040     0.0020     3.1980 h4         1 OBI       0.170000
     26 H12          3.7420    -0.0060    -1.0330 ha         1 OBI       0.171750
     27 H13          6.2050    -0.0020    -0.9570 h4         1 OBI       0.170000
     28 H81          8.1040     0.5130     2.0040 h2         1 OBI       0.094000
     29 H82          8.1040     0.5110     0.2350 h2         1 OBI       0.094000
     30 H71          9.9830    -0.7520     0.2360 h2         1 OBI       0.094000
     31 H72          9.9830    -0.7520     2.0050 h2         1 OBI       0.094000
     32 H4          10.2260    -2.7040    -0.9560 h4         1 OBI       0.170000
     33 H3          11.1560    -4.9850    -1.0290 ha         1 OBI       0.171750
     34 H5          10.2320    -2.7000     3.1990 h4         1 OBI       0.170000
     35 H6          11.1580    -4.9820     3.2740 ha         1 OBI       0.171750
     36 H1          12.3690    -5.6420     1.3060 DU         1 OBI       0.213000
     37 HO1         12.5380    -8.8000     3.1180 ho         1 OBI       0.240000
@<TRIPOS>BOND
     1     1     2 1   
     2     1    22 1   
     3     2     3 1   
     4     3     4 1   
     5     3    23 1   
     6     4     5 1   
     7     4     7 1   
     8     4    23 1   
     9     5     6 1   
    10     5    24 1   
    11     6     9 1   
    12     6    25 1   
    13     7     8 1   
    14     7    26 1   
    15     8     9 1   
    16     8    27 1   
    17     9    10 1   
    18    10    11 1   
    19    10    28 1   
    20    10    29 1   
    21    11    12 1   
    22    12    13 1   
    23    12    30 1   
    24    12    31 1   
    25    13    14 1   
    26    13    16 1   
    27    14    15 1   
    28    14    32 1   
    29    15    18 1   
    30    15    33 1   
    31    16    17 1   
    32    16    34 1   
    33    17    18 1   
    34    17    35 1   
    35    18    19 1   
    36    18    36 1   
    37    19    20 1   
    38    19    36 1   
    39    20    21 1   
    40    21    37 1   
@<TRIPOS>SUBSTRUCTURE
     1 OBI         1 TEMP              0 ****  ****    0 ROOT
