@<TRIPOS>MOLECULE
molecule
   37    38     1     0     0
SMALL
bcc


@<TRIPOS>ATOM
      1 O3           0.0000     0.0000     0.0000 oh         1 OBI      -0.323500
      2 N4           1.4160     0.0000     0.0000 n2         1 OBI      -0.361700
      3 C14          2.0630     0.0000     1.1200 ce         1 OBI       0.365800
      4 C11          3.5400     0.0010     1.1200 ca         1 OBI       0.033600
      5 C10          4.2600     0.0010     2.3200 ca         1 OBI      -0.118000
      6 C9           5.6380     0.0010     2.2740 ca         1 OBI      -0.030300
      7 C12          4.2600    -0.0060    -0.0810 ca         1 OBI      -0.118000
      8 C13          5.6390     0.0000    -0.0340 ca         1 OBI      -0.030300
      9 N3           6.2770     0.0010     1.1200 na         1 OBI       0.044400
     10 C8           7.7430     0.0020     1.1200 c3         1 OBI       0.213100
     11 O2           8.2190    -1.3460     1.1210 os         1 OBI      -0.429600
     12 C7           9.6460    -1.2790     1.1210 c3         1 OBI       0.213100
     13 N2          10.1990    -2.6360     1.1210 na         1 OBI       0.044400
     14 C4          10.4390    -3.2280    -0.0320 ca         1 OBI      -0.030300
     15 C3          10.9610    -4.5050    -0.0780 ca         1 OBI      -0.118000
     16 C5          10.4450    -3.2250     2.2750 ca         1 OBI      -0.030300
     17 C6          10.9600    -4.5040     2.3220 ca         1 OBI      -0.118000
     18 C2          11.2320    -5.1700     1.1230 ca         1 OBI       0.033600
     19 C1          11.7890    -6.5390     1.1230 ce         1 OBI       0.365800
     20 N1          12.0330    -7.1370     2.2420 n2         1 OBI      -0.361700
     21 O1          12.5670    -8.4490     2.2430 oh         1 OBI      -0.323500
     22 HO3         -0.3140     0.0010    -0.8890 ho         1 OBI       0.462000
     23 H14          1.5210     0.0000     2.0580 h4         1 OBI       0.047800
     24 H10          3.7420     0.0010     3.2720 ha         1 OBI       0.214500
     25 H9           6.2040     0.0020     3.1980 h4         1 OBI       0.205750
     26 H12          3.7420    -0.0060    -1.0330 ha         1 OBI       0.214500
     27 H13          6.2050    -0.0020    -0.9570 h4         1 OBI       0.205750
     28 H81          8.1040     0.5110     0.2350 h2         1 OBI       0.094700
     29 H82          8.1040     0.5130     2.0040 h2         1 OBI       0.094700
     30 H71          9.9830    -0.7520     2.0050 h2         1 OBI       0.094700
     31 H72          9.9830    -0.7520     0.2360 h2         1 OBI       0.094700
     32 H4          10.2260    -2.7040    -0.9560 h4         1 OBI       0.205750
     33 H3          11.1560    -4.9850    -1.0290 ha         1 OBI       0.214500
     34 H5          10.2320    -2.7000     3.1990 h4         1 OBI       0.205750
     35 H6          11.1580    -4.9820     3.2740 ha         1 OBI       0.214500
     36 H1          11.9930    -7.0410     0.1850 h4         1 OBI       0.047800
     37 HO1         12.6860    -8.7400     3.1320 ho         1 OBI       0.462000
@<TRIPOS>BOND
     1     1     2 1
     2     1    22 1
     3     2     3 2
     4     3     4 1
     5     3    23 1
     6     4     5 ar
     7     4     7 ar
     8     5     6 ar
     9     5    24 1
    10     6     9 1
    11     6    25 1
    12     7     8 ar
    13     7    26 1
    14     8     9 2
    15     8    27 1
    16     9    10 1
    17    10    11 1
    18    10    28 1
    19    10    29 1
    20    11    12 1
    21    12    13 1
    22    12    30 1
    23    12    31 1
    24    13    14 1
    25    13    16 2
    26    14    15 ar
    27    14    32 1
    28    15    18 ar
    29    15    33 1
    30    16    17 ar
    31    16    34 1
    32    17    18 ar
    33    17    35 1
    34    18    19 1
    35    19    20 2
    36    19    36 1
    37    20    21 1
    38    21    37 1
@<TRIPOS>SUBSTRUCTURE
     1 OBI         1 TEMP              0 ****  ****    0 ROOT
