@<TRIPOS>MOLECULE
molecule
   51    55     1     0     0
SMALL
bcc


@<TRIPOS>ATOM
      1 C01          0.0000     0.0000     0.0000 ca         1 OBM       0.111100
      2 C02          1.3890     0.0000     0.0000 ca         1 OBM      -0.152000
      3 C03          2.0810     0.0000     1.1910 ca         1 OBM      -0.098000
      4 C04          1.3830    -0.0010     2.4020 ca         1 OBM      -0.051800
      5 C05         -0.0150    -0.0000     2.3980 ca         1 OBM      -0.098000
      6 C06         -0.6980    -0.0010     1.2010 ca         1 OBM      -0.152000
      7 O01         -0.6770     0.0060    -1.1770 oh         1 OBM      -0.521100
      8 C07          2.1170    -0.0020     3.6790 ce         1 OBM      -0.084400
      9 C08          2.9210     0.9790     4.1600 cf         1 OBM      -0.081400
     10 C09          3.4320     0.4800     5.5140 c3         1 OBM       0.196300
     11 C10          3.2390     2.2640     3.5110 ca         1 OBM      -0.053800
     12 C11          4.5470     2.5350     3.0980 ca         1 OBM      -0.096000
     13 C12          4.8390     3.7380     2.4900 ca         1 OBM      -0.152500
     14 C13          3.8370     4.6780     2.2880 ca         1 OBM       0.113100
     15 C14          2.5370     4.4120     2.6970 ca         1 OBM      -0.152500
     16 C15          2.2340     3.2110     3.3000 ca         1 OBM      -0.096000
     17 O02          4.1300     5.8610     1.6890 oh         1 OBM      -0.521100
     18 C16          2.1250    -1.1080     4.7380 c3         1 OBM       0.173300
     19 C17          1.2810    -0.5420     5.9230 c3         1 OBM      -0.073400
     20 C18          2.2030     0.5720     6.4720 c3         1 OBM      -0.270900
     21 O03          3.4890    -0.9650     5.2670 os         1 OBM      -0.379600
     22 S01          2.6890     0.2300     8.1850 s6         1 OBM       1.455500
     23 O04          1.3810     0.2530     8.9630 os         1 OBM      -0.451800
     24 O05          3.1520    -1.1070     8.3160 o          1 OBM      -0.611800
     25 O06          3.4330     1.3170     8.7190 o          1 OBM      -0.611800
     26 C19          0.8770     1.4990     9.1610 ca         1 OBM       0.101100
     27 C20          1.2540     2.2320    10.2770 ca         1 OBM      -0.119000
     28 C21          0.7400     3.4980    10.4760 ca         1 OBM      -0.090000
     29 C22         -0.1500     4.0370     9.5630 ca         1 OBM      -0.010900
     30 C23         -0.5270     3.3080     8.4490 ca         1 OBM      -0.090000
     31 C24         -0.0110     2.0430     8.2430 ca         1 OBM      -0.119000
     32 Br1         -0.8520     5.7710     9.8380 br         1 OBM      -0.077100
     33 H1           1.9300     0.0010    -0.9390 ha         1 OBM       0.143500
     34 H2           3.1640    -0.0000     1.1900 ha         1 OBM       0.137500
     35 H3          -0.5610    -0.0010     3.3340 ha         1 OBM       0.137500
     36 H4          -1.7810    -0.0000     1.1970 ha         1 OBM       0.143500
     37 H5          -0.8360    -0.8820    -1.4530 ho         1 OBM       0.421000
     38 H6           4.3500     0.9310     5.8720 h1         1 OBM       0.116700
     39 H7           5.3290     1.8020     3.2550 ha         1 OBM       0.138500
     40 H8           5.8520     3.9490     2.1700 ha         1 OBM       0.144000
     41 H9           1.7580     5.1480     2.5360 ha         1 OBM       0.144000
     42 H10          1.2190     3.0050     3.6180 ha         1 OBM       0.138500
     43 H11          4.3730     6.4940     2.3440 ho         1 OBM       0.421000
     44 H12          1.8570    -2.1000     4.3930 h1         1 OBM       0.115700
     45 H13          1.1090    -1.3040     6.6730 hc         1 OBM       0.066200
     46 H14          0.3450    -0.1280     5.5680 hc         1 OBM       0.066200
     47 H15          1.7250     1.5410     6.3920 h1         1 OBM       0.113700
     48 H16          1.9500     1.8110    10.9920 ha         1 OBM       0.155000
     49 H17          1.0340     4.0710    11.3480 ha         1 OBM       0.155000
     50 H18         -1.2220     3.7320     7.7340 ha         1 OBM       0.155000
     51 H19         -0.3060     1.4720     7.3710 ha         1 OBM       0.155000
@<TRIPOS>BOND
     1     7     1 1
     2     1     6 ar
     3     1     2 ar
     4     6     5 ar
     5     2     3 ar
     6     5     4 ar
     7     3     4 ar
     8     4     8 1
     9     8     9 2
    10     8    18 1
    11    12    13 ar
    12    12    11 ar
    13    13    14 ar
    14    11     9 1
    15    11    16 ar
    16     9    10 1
    17    18    21 1
    18    18    19 1
    19    14    17 1
    20    14    15 ar
    21    16    15 ar
    22    21    10 1
    23    10    20 1
    24    19    20 1
    25    20    22 1
    26    24    22 2
    27    22    23 1
    28    22    25 2
    29    23    26 1
    30    27    26 ar
    31    27    28 ar
    32    26    31 ar
    33    28    29 ar
    34    31    30 ar
    35    29    30 ar
    36    29    32 1
    37     2    33 1
    38     3    34 1
    39     5    35 1
    40     6    36 1
    41     7    37 1
    42    10    38 1
    43    12    39 1
    44    13    40 1
    45    15    41 1
    46    16    42 1
    47    17    43 1
    48    18    44 1
    49    19    45 1
    50    19    46 1
    51    20    47 1
    52    27    48 1
    53    28    49 1
    54    30    50 1
    55    31    51 1
@<TRIPOS>SUBSTRUCTURE
     1 OBM         1 TEMP              0 ****  ****    0 ROOT
