@<TRIPOS>MOLECULE
OBP
   26    27     1     0     0
SMALL
bcc


@<TRIPOS>ATOM
      1 CX1         0.2060   -0.6380    0.0760 ca        1 OBP     -0.118000
      2 CX2         1.5480   -0.2340    0.0570 cp        1 OBP      0.051000
      3 CX3         2.1900    0.1140    1.2580 ca        1 OBP     -0.156500
      4 CX4         1.4600    0.0720    2.4500 ca        1 OBP     -0.054000
      5 CX5         0.1230   -0.3160    2.4650 ca        1 OBP     -0.144000
      6 CX6        -0.5040   -0.6760    1.2730 ca        1 OBP     -0.094000
      7 CX7         2.2480   -0.1730   -1.2300 cp        1 OBP     -0.109000
      8 CX8         2.8530    1.0180   -1.6550 ca        1 OBP     -0.098000
      9 CX9         3.4910    1.0970   -2.8910 ca        1 OBP     -0.160000
     10 CXA         3.5370   -0.0150   -3.7300 ca        1 OBP     -0.082000
     11 CXB         2.9410   -1.2100   -3.3390 ca        1 OBP     -0.219000
     12 CXC         2.2900   -1.2870   -2.0980 ca        1 OBP      0.143100
     13 OH          1.6720   -2.4420   -1.6800 oh        1 OBP     -0.492100
     14 SX1         3.8650    0.4600    1.2520 sx        1 OBP      0.649500
     15 OX1         4.0370    1.8990    1.0240 o         1 OBP     -0.539200
     16 OX2         4.2190    0.5210    2.9160 oh        1 OBP     -0.601800
     17 HX1        -0.2770   -0.9410   -0.8660 ha        1 OBP      0.144000
     18 HX4         1.9600    0.3420    3.3970 ha        1 OBP      0.148000
     19 HX5        -0.4320   -0.3410    3.4140 ha        1 OBP      0.136000
     20 HX6        -1.5590   -0.9900    1.2760 ha        1 OBP      0.134000
     21 HX8         2.8210    1.9060   -0.9980 ha        1 OBP      0.172000
     22 HX9         3.9590    2.0430   -3.2010 ha        1 OBP      0.144000
     23 HX10        4.0430    0.0490   -4.7050 ha        1 OBP      0.137000
     24 HX11        2.9710   -2.0900   -3.9970 ha        1 OBP      0.136000
     25 HOH         1.8330   -3.1250   -2.3480 ho        1 OBP      0.421000
     26 HX2         4.3220    1.4250    3.2250 ho        1 OBP      0.449000
@<TRIPOS>BOND
     1    1    2 ar  
     2    1    6 ar  
     3    1   17 1   
     4    2    3 ar  
     5    2    7 1   
     6    3    4 ar  
     7    3   14 1   
     8    4    5 ar  
     9    4   18 1   
    10    5    6 ar  
    11    5   19 1   
    12    6   20 1   
    13    7    8 ar  
    14    7   12 ar  
    15    8    9 ar  
    16    8   21 1   
    17    9   10 ar  
    18    9   22 1   
    19   10   11 ar  
    20   10   23 1   
    21   11   12 ar  
    22   11   24 1   
    23   12   13 1   
    24   13   25 1   
    25   14   15 2   
    26   14   16 1   
    27   16   26 1   
@<TRIPOS>SUBSTRUCTURE
     1 OBP         1 TEMP              0 ****  ****    0 ROOT
