@<TRIPOS>MOLECULE
molecule
   26    27     1     0     0
SMALL
bcc


@<TRIPOS>ATOM
      1 CX1          0.0000     0.0000     0.0000 ca         1 OBP      -0.134000
      2 CX2          1.3930     0.0000     0.0000 cp         1 OBP       0.035000
      3 CX3          2.0860     0.0000     1.2110 ca         1 OBP      -0.100500
      4 CX4          1.3870    -0.0000     2.4010 ca         1 OBP      -0.048000
      5 CX5          0.0040    -0.0000     2.3940 ca         1 OBP      -0.142000
      6 CX6         -0.6880    -0.0000     1.1970 ca         1 OBP      -0.100000
      7 CX7          2.1380    -0.0000    -1.2830 cp         1 OBP      -0.079000
      8 CX8          2.0490     1.0910    -2.1430 ca         1 OBP      -0.083000
      9 CX9          2.7450     1.0860    -3.3360 ca         1 OBP      -0.144000
     10 CXA          3.5300    -0.0000    -3.6800 ca         1 OBP      -0.099000
     11 CXB          3.6250    -1.0880    -2.8330 ca         1 OBP      -0.189000
     12 CXC          2.9380    -1.0930    -1.6300 ca         1 OBP       0.112100
     13 OH           3.0360    -2.1590    -0.7940 oh         1 OBP      -0.518100
     14 SX1          3.8470     0.0000     1.2210 sx         1 OBP       0.708500
     15 OX1          4.1650     1.3490     1.5370 o          1 OBP      -0.558200
     16 OX2          4.1820    -0.7410     2.5070 oh         1 OBP      -0.644800
     17 HX1         -0.5430    -0.0000    -0.9380 ha         1 OBP       0.132000
     18 HX4          1.9230    -0.0000     3.3430 ha         1 OBP       0.148000
     19 HX5         -0.5400    -0.0010     3.3310 ha         1 OBP       0.131000
     20 HX6         -1.7710    -0.0000     1.1980 ha         1 OBP       0.129000
     21 HX8          1.4350     1.9430    -1.8770 ha         1 OBP       0.148000
     22 HX9          2.6750     1.9350    -4.0050 ha         1 OBP       0.138000
     23 HX10         4.0700     0.0020    -4.6180 ha         1 OBP       0.135000
     24 HX11         4.2440    -1.9340    -3.1070 ha         1 OBP       0.137000
     25 HOH          2.8400    -2.9500    -1.2680 ho         1 OBP       0.427000
     26 HX2          5.0930    -0.9820     2.5030 ho         1 OBP       0.463000
@<TRIPOS>BOND
     1     1     2 ar
     2     1     6 ar
     3     1    17 1
     4     2     3 ar
     5     2     7 1
     6     3     4 ar
     7     3    14 1
     8     4     5 ar
     9     4    18 1
    10     5     6 ar
    11     5    19 1
    12     6    20 1
    13     7     8 ar
    14     7    12 ar
    15     8     9 ar
    16     8    21 1
    17     9    10 ar
    18     9    22 1
    19    10    11 ar
    20    10    23 1
    21    11    12 ar
    22    11    24 1
    23    12    13 1
    24    13    25 1
    25    14    15 2
    26    14    16 1
    27    16    26 1
@<TRIPOS>SUBSTRUCTURE
     1 OBP         1 TEMP              0 ****  ****    0 ROOT
