@<TRIPOS>MOLECULE
OBT
   58    62     1     0     0
SMALL
bcc


@<TRIPOS>ATOM
      1 C01          0.0000     0.0000     0.0000 ca         1 OBT      -0.137500
      2 C02          1.3890     0.0000     0.0000 ca         1 OBT       0.132100
      3 C03          2.0880     0.0000     1.2010 ca         1 OBT      -0.137500
      4 C04          1.4050    -0.0010     2.3980 ca         1 OBT      -0.065500
      5 C05          0.0070    -0.0020     2.4030 ca         1 OBT      -0.054800
      6 C06         -0.6910     0.0050     1.1920 ca         1 OBT      -0.065500
      7 O01          2.0660    -0.0000    -1.1770 oh         1 OBT      -0.500100
      8 C07         -0.7270    -0.0030     3.6800 ce         1 OBT      -0.096400
      9 C08         -0.7380     0.9780     4.6160 cf         1 OBT      -0.092400
     10 C09         -1.6520     0.4780     5.7390 c3         1 OBT       0.229300
     11 C10         -0.0170     2.2620     4.5660 ca         1 OBT      -0.050800
     12 C11         -1.6390    -1.1090     4.2180 c3         1 OBT       0.270300
     13 C12          0.9970     2.5340     5.4880 ca         1 OBT      -0.067500
     14 C13          1.6690     3.7360     5.4360 ca         1 OBT      -0.137000
     15 C14          1.3380     4.6770     4.4690 ca         1 OBT       0.130100
     16 C15          0.3310     4.4120     3.5510 ca         1 OBT      -0.137000
     17 C16         -0.3420     3.2100     3.5900 ca         1 OBT      -0.067500
     18 O02          2.0020     5.8620     4.4220 oh         1 OBT      -0.500100
     19 C17         -0.8280    -1.7660     5.3770 c3         1 OBT      -0.073900
     20 C18         -0.8320    -0.6320     6.4690 c3         1 OBT      -0.021400
     21 S01         -1.6610    -3.2570     5.9910 s6         1 OBT       0.967900
     22 O03         -2.6150    -0.3190     4.9700 os         1 OBT      -0.374600
     23 N01         -0.8450    -3.6450     7.3790 nh         1 OBT      -0.370900
     24 O04         -2.9760    -2.9480     6.4320 o          1 OBT      -0.559300
     25 O05         -1.4190    -4.3560     5.1240 o          1 OBT      -0.559300
     26 H1          -0.5410     0.0020    -0.9390 ha         1 OBT       0.116500
     27 H2           3.1710    -0.0000     1.1970 ha         1 OBT       0.116500
     28 H3           1.9510    -0.0030     3.3330 ha         1 OBT       0.108500
     29 H4          -1.7750     0.0040     1.1900 ha         1 OBT       0.108500
     30 H5           2.1790    -0.8880    -1.4740 ho         1 OBT       0.405000
     31 H6          -2.0810     1.2440     6.3740 h1         1 OBT       0.063700
     32 H7          -2.0510    -1.7880     3.4810 h1         1 OBT       0.069700
     33 H8           1.2560     1.8010     6.2420 ha         1 OBT       0.108000
     34 H9           2.4550     3.9480     6.1510 ha         1 OBT       0.116000
     35 H10          0.0790     5.1480     2.7970 ha         1 OBT       0.116000
     36 H11         -1.1270     3.0040     2.8730 ha         1 OBT       0.108000
     37 H12          1.5460     6.4990     4.9470 ho         1 OBT       0.404000
     38 H13          0.1830    -1.9910     5.0600 h1         1 OBT       0.092700
     39 H14          0.1750    -0.2940     6.6820 hc         1 OBT       0.031700
     40 H15         -1.3360    -0.9600     7.3690 hc         1 OBT       0.031700
     41 C19         -1.3610    -3.2070     8.6790 c3         1 OBT       0.164800
     42 C20         -2.2030    -4.3240     9.2960 c3         1 OBT       0.553900
     43 F1          -1.4120    -5.4640     9.4690 f          1 OBT      -0.202633
     44 F2          -2.6950    -3.9060    10.5370 f          1 OBT      -0.202633
     45 F3          -3.2740    -4.6250     8.4470 f          1 OBT      -0.202633
     46 C21          0.3350    -4.3900     7.3110 ca         1 OBT       0.040600
     47 C22          1.5250    -3.8550     7.7880 ca         1 OBT      -0.087000
     48 C23          2.6890    -4.5930     7.7190 ca         1 OBT      -0.089500
     49 C24          2.6720    -5.8660     7.1750 ca         1 OBT      -0.032600
     50 C25          1.4890    -6.4010     6.6990 ca         1 OBT      -0.089500
     51 C26          0.3200    -5.6700     6.7700 ca         1 OBT      -0.087000
     52 H16         -0.5320    -2.9740     9.3360 h1         1 OBT       0.057700
     53 H17         -1.9740    -2.3240     8.5440 h1         1 OBT       0.057700
     54 H18          1.5400    -2.8590     8.2140 ha         1 OBT       0.124500
     55 H19          3.6180    -4.1760     8.0910 ha         1 OBT       0.117500
     56 H21          1.4780    -7.3990     6.2760 ha         1 OBT       0.117500
     57 H22         -0.6060    -6.0900     6.3970 ha         1 OBT       0.124500
     58 Cl1          4.1390    -6.7910     7.0900 cl         1 OBT      -0.022400
@<TRIPOS>BOND
     1     1     2 ar  
     2     1     6 ar  
     3     1    26 1   
     4     2     3 ar  
     5     2     7 1   
     6     3     4 ar  
     7     3    27 1   
     8     4     5 ar  
     9     4    28 1   
    10     5     6 ar  
    11     5     8 1   
    12     6    29 1   
    13     7    30 1   
    14     8     9 2   
    15     8    12 1   
    16     9    10 1   
    17     9    11 1   
    18    10    20 1   
    19    10    22 1   
    20    10    31 1   
    21    11    13 ar  
    22    11    17 ar  
    23    12    19 1   
    24    12    22 1   
    25    12    32 1   
    26    13    14 ar  
    27    13    33 1   
    28    14    15 ar  
    29    14    34 1   
    30    15    16 ar  
    31    15    18 1   
    32    16    17 ar  
    33    16    35 1   
    34    17    36 1   
    35    18    37 1   
    36    19    20 1   
    37    19    21 1   
    38    19    38 1   
    39    20    39 1   
    40    20    40 1   
    41    21    23 1   
    42    21    24 2   
    43    21    25 2   
    44    23    41 1   
    45    23    46 1   
    46    41    42 1   
    47    41    52 1   
    48    41    53 1   
    49    42    43 1   
    50    42    44 1   
    51    42    45 1   
    52    46    47 ar  
    53    46    51 ar  
    54    47    48 ar  
    55    47    54 1   
    56    48    49 ar  
    57    48    55 1   
    58    49    50 ar  
    59    49    58 1   
    60    50    51 ar  
    61    50    56 1   
    62    51    57 1   
@<TRIPOS>SUBSTRUCTURE
     1 OBT         1 TEMP              0 ****  ****    0 ROOT
