@<TRIPOS>MOLECULE
OBZ
   19    19     1     0     0
SMALL
bcc


@<TRIPOS>ATOM
      1 O2           0.0000     0.0000     0.0000 os         1 OBZ      -0.316100
      2 C3           1.4290     0.0000     0.0000 c3         1 OBZ       0.281700
      3 C4           1.9320     0.0000     1.4210 ca         1 OBZ      -0.165300
      4 C9           2.1620    -1.1970     2.0720 ca         1 OBZ      -0.058500
      5 C8           2.6240    -1.1970     3.3750 ca         1 OBZ      -0.089000
      6 C7           2.8540     0.0010     4.0270 ca         1 OBZ      -0.044000
      7 C6           2.6240     1.1970     3.3750 ca         1 OBZ      -0.089000
      8 C5           2.1660     1.1970     2.0700 ca         1 OBZ      -0.058500
      9 N1          -0.5960    -0.0000    -1.3360 nz         1 OBZ       0.273900
     10 H3           1.7900     0.8840    -0.5110 h1         1 OBZ       0.016700
     11 H3A          1.7900    -0.8840    -0.5110 h1         1 OBZ       0.016700
     12 H9           1.9820    -2.1350     1.5610 ha         1 OBZ       0.105000
     13 H8           2.8040    -2.1350     3.8860 ha         1 OBZ       0.121000
     14 H7           3.2140     0.0010     5.0480 ha         1 OBZ       0.120000
     15 H6           2.8060     2.1360     3.8850 ha         1 OBZ       0.121000
     16 H5           1.9860     2.1350     1.5590 ha         1 OBZ       0.105000
     17 HN1         -0.3010    -0.8170    -1.8330 hn         1 OBZ       0.219467
     18 HN1A        -1.5930    -0.0000    -1.2560 hn         1 OBZ       0.219467
     19 H13         -0.3010     0.8170    -1.8330 hn         1 OBZ       0.219467
@<TRIPOS>BOND
     1     1     2 1   
     2     1     9 1   
     3     2     3 1   
     4     2    10 1   
     5     2    11 1   
     6     3     4 ar  
     7     3     8 ar  
     8     4     5 ar  
     9     4    12 1   
    10     5     6 ar  
    11     5    13 1   
    12     6     7 ar  
    13     6    14 1   
    14     7     8 ar  
    15     7    15 1   
    16     8    16 1   
    17     9    17 1   
    18     9    18 1   
    19     9    19 1   
@<TRIPOS>SUBSTRUCTURE
     1 OBZ         1 TEMP              0 ****  ****    0 ROOT
