@<TRIPOS>MOLECULE
molecule
   19    19     1     0     0
SMALL
bcc


@<TRIPOS>ATOM
      1 O2           0.0000     0.0000     0.0000 os         1 OBZ      -0.151100
      2 C3           1.4290     0.0000     0.0000 c3         1 OBZ       0.137700
      3 C4           1.9320     0.0000     1.4210 ca         1 OBZ      -0.133300
      4 C9           2.1620    -1.1970     2.0720 ca         1 OBZ      -0.089500
      5 C8           2.6240    -1.1970     3.3750 ca         1 OBZ      -0.118000
      6 C7           2.8540     0.0010     4.0270 ca         1 OBZ      -0.076000
      7 C6           2.6240     1.1970     3.3750 ca         1 OBZ      -0.118000
      8 C5           2.1660     1.1970     2.0700 ca         1 OBZ      -0.089500
      9 N1          -0.5960    -0.0000    -1.3360 nz         1 OBZ      -0.629100
     10 H3           1.7900     0.8840    -0.5110 h1         1 OBZ       0.065700
     11 H3A          1.7900    -0.8840    -0.5110 h1         1 OBZ       0.065700
     12 H9           1.9820    -2.1350     1.5610 ha         1 OBZ       0.135000
     13 H8           2.8040    -2.1350     3.8860 ha         1 OBZ       0.155000
     14 H7           3.2140     0.0010     5.0480 ha         1 OBZ       0.156000
     15 H6           2.8060     2.1360     3.8850 ha         1 OBZ       0.155000
     16 H5           1.9860     2.1350     1.5590 ha         1 OBZ       0.135000
     17 HN1         -0.3010    -0.8170    -1.8330 hn         1 OBZ       0.466133
     18 HN1A        -1.5930    -0.0000    -1.2560 hn         1 OBZ       0.466133
     19 H13         -0.3010     0.8170    -1.8330 hn         1 OBZ       0.466133
@<TRIPOS>BOND
     1     1     2 1
     2     2     3 1
     3     3     4 ar
     4     3     8 ar
     5     4     5 ar
     6     5     6 ar
     7     6     7 ar
     8     7     8 ar
     9     1     9 1
    10     2    10 1
    11     2    11 1
    12     4    12 1
    13     5    13 1
    14     6    14 1
    15     7    15 1
    16     8    16 1
    17     9    17 1
    18     9    18 1
    19    19     9 1
@<TRIPOS>SUBSTRUCTURE
     1 OBZ         1 TEMP              0 ****  ****    0 ROOT
