@<TRIPOS>MOLECULE
molecule
   27    26     1     0     0
SMALL
bcc


@<TRIPOS>ATOM
      1 CAA          0.0000     0.0000     0.0000 c3         1 OC9      -0.092100
      2 CAC          1.5300     0.0000     0.0000 c3         1 OC9      -0.084400
      3 CAE          2.0400     0.0000     1.4420 c3         1 OC9      -0.081400
      4 CAG          3.5690     0.0000     1.4430 c3         1 OC9      -0.082400
      5 CAI          4.0790     0.0000     2.8860 c3         1 OC9      -0.079400
      6 CAH          5.6090     0.0000     2.8870 c3         1 OC9      -0.082400
      7 CAF          6.1180     0.0000     4.3290 c3         1 OC9      -0.081400
      8 CAD          7.6480    -0.0000     4.3300 c3         1 OC9       0.140400
      9 OAB          8.1250    -0.0000     5.6770 oh         1 OC9      -0.612800
     10 HAA1        -0.3610     0.8840     0.5110 hc         1 OC9       0.032367
     11 HAA2        -0.3610     0.0000    -1.0210 hc         1 OC9       0.032367
     12 HAA3        -0.3610    -0.8850     0.5110 hc         1 OC9       0.032367
     13 HAC1         1.8910     0.8850    -0.5110 hc         1 OC9       0.039700
     14 HAC2         1.8910    -0.8850    -0.5110 hc         1 OC9       0.039700
     15 HAE1         1.6780    -0.8840     1.9530 hc         1 OC9       0.041700
     16 HAE2         1.6780     0.8840     1.9530 hc         1 OC9       0.041700
     17 HAG1         3.9310     0.8840     0.9320 hc         1 OC9       0.040700
     18 HAG2         3.9310    -0.8840     0.9320 hc         1 OC9       0.040700
     19 HAI1         3.7180    -0.8840     3.3970 hc         1 OC9       0.043700
     20 HAI2         3.7180     0.8840     3.3970 hc         1 OC9       0.043700
     21 HAH1         5.9700    -0.8840     2.3760 hc         1 OC9       0.040700
     22 HAH2         5.9700     0.8840     2.3760 hc         1 OC9       0.040700
     23 HAF1         5.7570     0.8840     4.8400 hc         1 OC9       0.053700
     24 HAF2         5.7570    -0.8840     4.8400 hc         1 OC9       0.053700
     25 HAD1         8.0090    -0.8840     3.8190 h1         1 OC9       0.018700
     26 HAD2         8.0090     0.8850     3.8190 h1         1 OC9       0.018700
     27 HAB          9.0680    -0.0000     5.6770 ho         1 OC9       0.401000
@<TRIPOS>BOND
     1     1     2 1
     2     1    10 1
     3     1    11 1
     4     1    12 1
     5     2     3 1
     6     2    13 1
     7     2    14 1
     8     3     4 1
     9     3    15 1
    10     3    16 1
    11     4     5 1
    12     4    17 1
    13     4    18 1
    14     5     6 1
    15     5    19 1
    16     5    20 1
    17     6     7 1
    18     6    21 1
    19     6    22 1
    20     7     8 1
    21     7    23 1
    22     7    24 1
    23     8     9 1
    24     8    25 1
    25     8    26 1
    26     9    27 1
@<TRIPOS>SUBSTRUCTURE
     1 OC9         1 TEMP              0 ****  ****    0 ROOT
