@<TRIPOS>MOLECULE
OC9
   27    26     1     0     0
SMALL
bcc


@<TRIPOS>ATOM
      1 CAA         0.0100    0.0000   -0.0030 c3        1 OC9     -0.093100
      2 CAC         1.5170   -0.0000    0.0220 c3        1 OC9     -0.080400
      3 CAE         2.0490   -0.0000    1.4390 c3        1 OC9     -0.079400
      4 CAG         3.5630   -0.0000    1.4590 c3        1 OC9     -0.079400
      5 CAI         4.0930   -0.0000    2.8770 c3        1 OC9     -0.078400
      6 CAH         5.6060   -0.0000    2.8970 c3        1 OC9     -0.078400
      7 CAF         6.1320   -0.0010    4.3150 c3        1 OC9     -0.084400
      8 CAD         7.6510    0.0010    4.3210 c3        1 OC9      0.131400
      9 OAB         8.0620   -0.0010    5.6790 oh        1 OC9     -0.601800
     10 HAA1       -0.3610    0.0000   -1.0570 hc        1 OC9      0.032700
     11 HAA2       -0.3930    0.9050    0.5130 hc        1 OC9      0.032700
     12 HAA3       -0.3930   -0.9050    0.5130 hc        1 OC9      0.032700
     13 HAC1        1.9030    0.9020   -0.5220 hc        1 OC9      0.038700
     14 HAC2        1.9030   -0.9020   -0.5220 hc        1 OC9      0.038700
     15 HAE1        1.6650   -0.9030    1.9840 hc        1 OC9      0.039700
     16 HAE2        1.6660    0.9020    1.9840 hc        1 OC9      0.039700
     17 HAG1        3.9460    0.9020    0.9140 hc        1 OC9      0.038700
     18 HAG2        3.9460   -0.9030    0.9140 hc        1 OC9      0.038700
     19 HAI1        3.7100    0.9020    3.4220 hc        1 OC9      0.041700
     20 HAI2        3.7100   -0.9030    3.4220 hc        1 OC9      0.041700
     21 HAH1        5.9890    0.9030    2.3520 hc        1 OC9      0.038700
     22 HAH2        5.9900   -0.9020    2.3510 hc        1 OC9      0.038700
     23 HAF1        5.7600    0.9000    4.8680 hc        1 OC9      0.055700
     24 HAF2        5.7620   -0.9040    4.8660 hc        1 OC9      0.055700
     25 HAD1        8.0480    0.9160    3.8030 h1        1 OC9      0.019700
     26 HAD2        8.0500   -0.9100    3.7990 h1        1 OC9      0.019700
     27 HAB         9.0260    0.0010    5.6750 ho        1 OC9      0.398000
@<TRIPOS>BOND
     1    1    2 1   
     2    1   10 1   
     3    1   11 1   
     4    1   12 1   
     5    2    3 1   
     6    2   13 1   
     7    2   14 1   
     8    3    4 1   
     9    3   15 1   
    10    3   16 1   
    11    4    5 1   
    12    4   17 1   
    13    4   18 1   
    14    5    6 1   
    15    5   19 1   
    16    5   20 1   
    17    6    7 1   
    18    6   21 1   
    19    6   22 1   
    20    7    8 1   
    21    7   23 1   
    22    7   24 1   
    23    8    9 1   
    24    8   25 1   
    25    8   26 1   
    26    9   27 1   
@<TRIPOS>SUBSTRUCTURE
     1 OC9         1 TEMP              0 ****  ****    0 ROOT
