@<TRIPOS>MOLECULE
molecule
   25    24     1     0     0
SMALL
bcc


@<TRIPOS>ATOM
      1 C1           0.0000     0.0000     0.0000 c          1 OCA       0.892600
      2 C2           1.5120     0.0000     0.0000 c3         1 OCA      -0.170400
      3 C3           2.0800     0.0000     1.4190 c3         1 OCA      -0.070400
      4 C4           3.6120     0.0130     1.4620 c3         1 OCA      -0.083400
      5 C5           4.2400    -0.0410     2.8580 c3         1 OCA      -0.078400
      6 C6           5.7690    -0.0480     2.8380 c3         1 OCA      -0.078400
      7 C7           6.3410    -0.1120     4.2550 c3         1 OCA      -0.083400
      8 C8           7.8620    -0.0810     4.2440 c3         1 OCA      -0.090100
      9 O1          -0.7100    -0.0150     0.9950 o          1 OCA      -0.858300
     10 O2          -0.4950     0.0230    -1.2660 o          1 OCA      -0.858300
     11 H21          1.8650    -0.8820    -0.5210 hc         1 OCA       0.030200
     12 H22          1.8650     0.8820    -0.5210 hc         1 OCA       0.030200
     13 H31          1.7270    -0.8850     1.9340 hc         1 OCA       0.038200
     14 H32          1.7110     0.8750     1.9400 hc         1 OCA       0.038200
     15 H41          3.9730    -0.8370     0.8960 hc         1 OCA       0.024200
     16 H42          3.9550     0.9170     0.9720 hc         1 OCA       0.024200
     17 H51          3.9050     0.8210     3.4220 hc         1 OCA       0.034200
     18 H52          3.8950    -0.9380     3.3580 hc         1 OCA       0.034200
     19 H61          6.1220     0.8540     2.3530 hc         1 OCA       0.034700
     20 H62          6.1120    -0.9100     2.2780 hc         1 OCA       0.034700
     21 H71          6.0090    -1.0270     4.7300 hc         1 OCA       0.036700
     22 H72          5.9740     0.7350     4.8230 hc         1 OCA       0.036700
     23 H81          8.2320    -0.1360     5.2600 hc         1 OCA       0.027367
     24 H82          8.2360    -0.9250     3.6770 hc         1 OCA       0.027367
     25 H83          8.2010     0.8400     3.7860 hc         1 OCA       0.027367
@<TRIPOS>BOND
     1     1     2 1
     2     1     9 1
     3     1    10 1
     4     2     3 1
     5     2    11 1
     6     2    12 1
     7     3     4 1
     8     3    13 1
     9     3    14 1
    10     4     5 1
    11     4    15 1
    12     4    16 1
    13     5     6 1
    14     5    17 1
    15     5    18 1
    16     6     7 1
    17     6    19 1
    18     6    20 1
    19     7     8 1
    20     7    21 1
    21     7    22 1
    22     8    23 1
    23     8    24 1
    24     8    25 1
@<TRIPOS>SUBSTRUCTURE
     1 OCA         1 TEMP              0 ****  ****    0 ROOT
