@<TRIPOS>MOLECULE
OCA
   25    24     1     0     0
SMALL
bcc


@<TRIPOS>ATOM
      1 C1          0.0470   -0.1030    0.0280 c         1 OCA      0.907600
      2 C2          1.5840   -0.0280    0.0090 c3        1 OCA     -0.193400
      3 C3          2.1470    0.0510    1.4070 c3        1 OCA     -0.065400
      4 C4          3.6580   -0.0580    1.4150 c3        1 OCA     -0.078400
      5 C5          4.2140    0.0390    2.8190 c3        1 OCA     -0.079400
      6 C6          5.7230   -0.0760    2.8290 c3        1 OCA     -0.078400
      7 C7          6.2780    0.0210    4.2340 c3        1 OCA     -0.081400
      8 C8          7.7800   -0.0940    4.2490 c3        1 OCA     -0.090100
      9 O1         -0.5090   -0.9100    0.8290 o         1 OCA     -0.853800
     10 O2         -0.5880    0.6360   -0.7780 o         1 OCA     -0.853800
     11 H21         1.9650   -0.9460   -0.5060 hc        1 OCA      0.018700
     12 H22         1.9040    0.8610   -0.5910 hc        1 OCA      0.018700
     13 H31         1.6970   -0.7740    2.0220 hc        1 OCA      0.043700
     14 H32         1.8400    1.0200    1.8790 hc        1 OCA      0.043700
     15 H41         4.0970    0.7560    0.7800 hc        1 OCA      0.025700
     16 H42         3.9660   -1.0350    0.9570 hc        1 OCA      0.025700
     17 H51         3.9090    1.0180    3.2760 hc        1 OCA      0.036200
     18 H52         3.7700   -0.7720    3.4540 hc        1 OCA      0.036200
     19 H61         6.0270   -1.0550    2.3730 hc        1 OCA      0.034200
     20 H62         6.1660    0.7350    2.1940 hc        1 OCA      0.034200
     21 H71         5.9700    1.0000    4.6890 hc        1 OCA      0.036200
     22 H72         5.8320   -0.7910    4.8680 hc        1 OCA      0.036200
     23 H81         8.1040   -1.0730    3.8210 hc        1 OCA      0.025700
     24 H82         8.2430    0.7220    3.6420 hc        1 OCA      0.025700
     25 H83         8.1680   -0.0200    5.2930 hc        1 OCA      0.025700
@<TRIPOS>BOND
     1    1    2 1   
     2    1    9 1   
     3    1   10 1   
     4    2    3 1   
     5    2   11 1   
     6    2   12 1   
     7    3    4 1   
     8    3   13 1   
     9    3   14 1   
    10    4    5 1   
    11    4   15 1   
    12    4   16 1   
    13    5    6 1   
    14    5   17 1   
    15    5   18 1   
    16    6    7 1   
    17    6   19 1   
    18    6   20 1   
    19    7    8 1   
    20    7   21 1   
    21    7   22 1   
    22    8   23 1   
    23    8   24 1   
    24    8   25 1   
@<TRIPOS>SUBSTRUCTURE
     1 OCA         1 TEMP              0 ****  ****    0 ROOT
