@<TRIPOS>MOLECULE
molecule
   49    48     1     0     0
SMALL
bcc


@<TRIPOS>ATOM
      1 CAA          0.0000     0.0000     0.0000 c3         1 OCB      -0.092100
      2 CAB          1.5310     0.0000     0.0000 c3         1 OCB      -0.084400
      3 CAC          2.0410     0.0000     1.4420 c3         1 OCB      -0.082400
      4 CAD          3.5700    -0.0000     1.4420 c3         1 OCB      -0.080400
      5 CAE          4.0810    -0.0000     2.8850 c3         1 OCB      -0.084400
      6 CAF          5.6110    -0.0010     2.8840 c3         1 OCB      -0.072400
      7 CAG          6.1200    -0.0010     4.3270 c3         1 OCB      -0.116400
      8 CAH          7.6280    -0.0010     4.3270 c          1 OCB       0.637100
      9 OAI          8.2310    -0.0020     3.2810 o          1 OCB      -0.495000
     10 OAK          8.2990    -0.0010     5.4900 os         1 OCB      -0.467900
     11 CAP          9.7440    -0.1380     5.4930 c3         1 OCB       0.145100
     12 CAQ         10.1220    -1.5580     5.9210 c3         1 OCB      -0.197400
     13 CAR          9.6320    -2.5400     4.8900 c          1 OCB       0.888600
     14 OAL          9.8510    -3.8540     5.0570 o          1 OCB      -0.816800
     15 OAS          9.0410    -2.1470     3.9130 o          1 OCB      -0.816800
     16 CAO         10.3490     0.8690     6.4740 c3         1 OCB       0.088800
     17 NAN         10.0420     2.2340     6.0260 n4         1 OCB      -0.572800
     18 CAT          8.6420     2.5480     6.3390 c3         1 OCB       0.094100
     19 CAJ         10.9230     3.1850     6.7170 c3         1 OCB       0.094100
     20 CAM         10.2540     2.3330     4.5760 c3         1 OCB       0.094100
     21 HAA1        -0.3610     0.0260    -1.0210 hc         1 OCB       0.031700
     22 HAA2        -0.3610     0.8710     0.5330 hc         1 OCB       0.031700
     23 HAA3        -0.3610    -0.8970     0.4880 hc         1 OCB       0.031700
     24 HAB1         1.8920    -0.8850    -0.5110 hc         1 OCB       0.041200
     25 HAB2         1.8920     0.8840    -0.5110 hc         1 OCB       0.041200
     26 HAC1         1.6790    -0.8840     1.9530 hc         1 OCB       0.039700
     27 HAC2         1.6800     0.8850     1.9530 hc         1 OCB       0.039700
     28 HAD1         3.9310    -0.8850     0.9320 hc         1 OCB       0.045700
     29 HAD2         3.9310     0.8840     0.9320 hc         1 OCB       0.045700
     30 HAE1         3.7190    -0.8840     3.3960 hc         1 OCB       0.038200
     31 HAE2         3.7210     0.8850     3.3960 hc         1 OCB       0.038200
     32 HAF1         5.9710    -0.8860     2.3740 hc         1 OCB       0.064200
     33 HAF2         5.9730     0.8830     2.3740 hc         1 OCB       0.064200
     34 HAG1         5.7590    -0.8860     4.8380 hc         1 OCB       0.065200
     35 HAG2         5.7590     0.8830     4.8380 hc         1 OCB       0.065200
     36 HAP         10.1270     0.0530     4.4980 h1         1 OCB       0.094700
     37 HAQ1        11.1990    -1.6340     6.0090 hc         1 OCB       0.052200
     38 HAQ2         9.6660    -1.7800     6.8780 hc         1 OCB       0.052200
     39 HAO1         9.9300     0.7100     7.4600 hx         1 OCB       0.099200
     40 HAO2        11.4240     0.7350     6.5130 hx         1 OCB       0.099200
     41 HAT1         8.0620     2.5670     5.4230 hx         1 OCB       0.094811
     42 HAT2         8.2410     1.7920     7.0040 hx         1 OCB       0.094811
     43 HAT3         8.5880     3.5170     6.8200 hx         1 OCB       0.094811
     44 HAJ1        10.6500     4.1960     6.4400 hx         1 OCB       0.094811
     45 HAJ2        11.9510     2.9980     6.4310 hx         1 OCB       0.094811
     46 HAJ3        10.8180     3.0630     7.7880 hx         1 OCB       0.094811
     47 HAM1        11.1450     1.7800     4.3030 hx         1 OCB       0.094811
     48 HAM2        10.3760     3.3730     4.3000 hx         1 OCB       0.094811
     49 HAM3         9.3990     1.9190     4.0560 hx         1 OCB       0.094811
@<TRIPOS>BOND
     1     1     2 1
     2     1    21 1
     3     1    22 1
     4     1    23 1
     5     2     3 1
     6     2    24 1
     7     2    25 1
     8     3     4 1
     9     3    26 1
    10     3    27 1
    11     4     5 1
    12     4    28 1
    13     4    29 1
    14     5     6 1
    15     5    30 1
    16     5    31 1
    17     6     7 1
    18     6    32 1
    19     6    33 1
    20     7     8 1
    21     7    34 1
    22     7    35 1
    23     8     9 2
    24     8    10 1
    25    10    11 1
    26    11    12 1
    27    11    16 1
    28    11    36 1
    29    12    13 1
    30    12    37 1
    31    12    38 1
    32    13    14 1
    33    13    15 1
    34    16    17 1
    35    16    39 1
    36    16    40 1
    37    17    18 1
    38    17    19 1
    39    17    20 1
    40    18    41 1
    41    18    42 1
    42    18    43 1
    43    19    44 1
    44    19    45 1
    45    19    46 1
    46    20    47 1
    47    20    48 1
    48    20    49 1
@<TRIPOS>SUBSTRUCTURE
     1 OCB         1 TEMP              0 ****  ****    0 ROOT
