@<TRIPOS>MOLECULE
molecule
   85    87     1     0     0
SMALL
bcc


@<TRIPOS>ATOM
      1 C5           0.0000     0.0000     0.0000 ce         1 OCC      -0.086200
      2 C10          1.4780     0.0000     0.0000 ce         1 OCC      -0.092200
      3 C1           2.1570     0.0000     1.3600 c3         1 OCC       0.169300
      4 C2           1.4830    -1.0620     2.2340 c3         1 OCC       0.128100
      5 C3          -0.0130    -0.7650     2.3500 c3         1 OCC       0.155100
      6 C4          -0.6820    -0.9310     0.9820 c3         1 OCC      -0.057200
      7 C6          -0.7070     0.7860    -0.8380 cf         1 OCC      -0.114000
      8 C7          -0.0100     1.6720    -1.7730 cf         1 OCC      -0.163000
      9 C8          -0.7090     2.4490    -2.6010 c2         1 OCC      -0.090400
     10 C14         -0.0510     3.3760    -3.5800 c3         1 OCC      -0.036500
     11 C13         -0.5860     4.7990    -3.2490 c3         1 OCC      -0.060000
     12 C12         -2.0640     4.8160    -3.5460 c3         1 OCC      -0.064400
     13 C11         -2.7640     3.8870    -2.5390 c3         1 OCC      -0.078400
     14 C9          -2.2310     2.4580    -2.6210 c3         1 OCC      -0.045200
     15 C15          1.4570     3.5800    -3.4260 c3         1 OCC      -0.078400
     16 C16          1.6900     4.9560    -4.1120 c3         1 OCC      -0.081400
     17 C17          0.3360     5.7100    -4.0450 c3         1 OCC      -0.052700
     18 C19          2.1820     0.0050    -1.1320 c2         1 OCC      -0.206000
     19 O2          -0.6050    -1.6720     3.2810 oh         1 OCC      -0.600800
     20 O1           2.0200     1.2850     1.9710 oh         1 OCC      -0.583800
     21 C20          0.5090     7.0490    -3.3280 c3         1 OCC      -0.069700
     22 C22          1.4670     7.9360    -4.1260 c3         1 OCC      -0.081400
     23 C18         -0.3690     5.0450    -1.7540 c3         1 OCC      -0.093100
     24 C21         -0.8510     7.7450    -3.2110 c3         1 OCC      -0.095100
     25 C23          1.7380     9.2250    -3.3480 c3         1 OCC      -0.083400
     26 C24          2.6950    10.1110    -4.1470 c3         1 OCC      -0.066400
     27 C25          2.9660    11.4010    -3.3690 c3         1 OCC       0.146800
     28 O25          3.6580    11.0900    -2.1580 oh         1 OCC      -0.603800
     29 C27          3.8230    12.3390    -4.2210 c3         1 OCC      -0.119600
     30 C26          1.6380    12.0830    -3.0370 c3         1 OCC      -0.119600
     31 O28          2.0730    -1.0490     3.5360 os         1 OCC      -0.382600
     32 C29          3.1710    -1.9610     3.5010 c3         1 OCC       0.123400
     33 C30          3.8510    -1.9940     4.8720 c3         1 OCC      -0.083400
     34 C31          5.0270    -2.9710     4.8340 c3         1 OCC       0.142400
     35 O32          5.6610    -3.0020     6.1150 oh         1 OCC      -0.607800
     36 H1           3.2060    -0.2410     1.2410 h1         1 OCC       0.038700
     37 H2           1.6200    -2.0370     1.7820 h1         1 OCC       0.055700
     38 H3          -0.1500     0.2530     2.6950 h1         1 OCC       0.065700
     39 H41         -0.5750    -1.9560     0.6470 hc         1 OCC       0.057700
     40 H42         -1.7320    -0.6740     1.0580 hc         1 OCC       0.057700
     41 H6          -1.7900     0.7650    -0.8160 ha         1 OCC       0.134000
     42 H7           1.0720     1.7280    -1.7620 ha         1 OCC       0.146000
     43 H14         -0.3010     3.1020    -4.5980 hc         1 OCC       0.064700
     44 H121        -2.4460     5.8230    -3.4400 hc         1 OCC       0.044700
     45 H122        -2.2360     4.4570    -4.5540 hc         1 OCC       0.044700
     46 H111        -2.6010     4.2660    -1.5380 hc         1 OCC       0.043700
     47 H112        -3.8270     3.8770    -2.7500 hc         1 OCC       0.043700
     48 H91         -2.5770     2.0020    -3.5400 hc         1 OCC       0.048700
     49 H92         -2.6010     1.8920    -1.7740 hc         1 OCC       0.048700
     50 H151         2.0030     2.7990    -3.9430 hc         1 OCC       0.047700
     51 H152         1.7330     3.6220    -2.3790 hc         1 OCC       0.047700
     52 H161         2.4510     5.5120    -3.5780 hc         1 OCC       0.044700
     53 H162         1.9830     4.8100    -5.1440 hc         1 OCC       0.044700
     54 H17         -0.0580     5.8590    -5.0430 hc         1 OCC       0.052700
     55 H191         3.2640     0.0080    -1.0980 ha         1 OCC       0.123000
     56 H192         1.6710     0.0100    -2.0880 ha         1 OCC       0.123000
     57 HO2         -1.3050    -1.2380     3.7410 ho         1 OCC       0.404000
     58 HO1          2.8740     1.6340     2.1630 ho         1 OCC       0.404000
     59 H20          0.9140     6.8800    -2.3380 hc         1 OCC       0.061700
     60 H221         1.0220     8.1790    -5.0840 hc         1 OCC       0.040200
     61 H222         2.3990     7.4080    -4.2850 hc         1 OCC       0.040200
     62 H181         0.6820     5.2300    -1.5680 hc         1 OCC       0.041367
     63 H182        -0.9480     5.9060    -1.4420 hc         1 OCC       0.041367
     64 H183        -0.6870     4.1740    -1.1950 hc         1 OCC       0.041367
     65 H211        -1.3540     7.4040    -2.3140 hc         1 OCC       0.036033
     66 H212        -0.7040     8.8170    -3.1580 hc         1 OCC       0.036033
     67 H213        -1.4540     7.5050    -4.0780 hc         1 OCC       0.036033
     68 H231         2.1830     8.9830    -2.3910 hc         1 OCC       0.051700
     69 H232         0.8050     9.7530    -3.1890 hc         1 OCC       0.051700
     70 H241         2.2500    10.3530    -5.1040 hc         1 OCC       0.048200
     71 H242         3.6280     9.5830    -4.3050 hc         1 OCC       0.048200
     72 H25          4.1000    11.8610    -1.8420 ho         1 OCC       0.401000
     73 H271         4.7360    11.8320    -4.5100 hc         1 OCC       0.041533
     74 H272         4.0690    13.2240    -3.6460 hc         1 OCC       0.041533
     75 H273         3.2720    12.6260    -5.1080 hc         1 OCC       0.041533
     76 H261         1.8140    13.1310    -2.8280 hc         1 OCC       0.041533
     77 H262         1.1970    11.6110    -2.1680 hc         1 OCC       0.041533
     78 H263         0.9640    11.9910    -3.8790 hc         1 OCC       0.041533
     79 H291         2.8100    -2.9520     3.2520 h1         1 OCC       0.022700
     80 H292         3.8850    -1.6380     2.7520 h1         1 OCC       0.022700
     81 H301         4.2120    -1.0030     5.1200 hc         1 OCC       0.067700
     82 H302         3.1370    -2.3160     5.6210 hc         1 OCC       0.067700
     83 H311         5.7400    -2.6480     4.0860 h1         1 OCC       0.018200
     84 H312         4.6660    -3.9610     4.5860 h1         1 OCC       0.018200
     85 H32          6.4130    -3.5690     6.0790 ho         1 OCC       0.402000
@<TRIPOS>BOND
     1     1     2 1
     2     1     6 1
     3     1     7 2
     4     2     3 1
     5     2    18 2
     6     3     4 1
     7     3    20 1
     8     3    36 1
     9     4     5 1
    10     4    31 1
    11     4    37 1
    12     5     6 1
    13     5    19 1
    14     5    38 1
    15     6    39 1
    16     6    40 1
    17     7     8 1
    18     7    41 1
    19     8     9 2
    20     8    42 1
    21     9    10 1
    22     9    14 1
    23    10    11 1
    24    10    15 1
    25    10    43 1
    26    11    12 1
    27    11    17 1
    28    11    23 1
    29    12    13 1
    30    12    44 1
    31    12    45 1
    32    13    14 1
    33    13    46 1
    34    13    47 1
    35    14    48 1
    36    14    49 1
    37    15    16 1
    38    15    50 1
    39    15    51 1
    40    16    17 1
    41    16    52 1
    42    16    53 1
    43    17    21 1
    44    17    54 1
    45    18    55 1
    46    18    56 1
    47    19    57 1
    48    20    58 1
    49    21    22 1
    50    21    24 1
    51    21    59 1
    52    22    25 1
    53    22    60 1
    54    22    61 1
    55    23    62 1
    56    23    63 1
    57    23    64 1
    58    24    65 1
    59    24    66 1
    60    24    67 1
    61    25    26 1
    62    25    68 1
    63    25    69 1
    64    26    27 1
    65    26    70 1
    66    26    71 1
    67    27    28 1
    68    27    29 1
    69    27    30 1
    70    28    72 1
    71    29    73 1
    72    29    74 1
    73    29    75 1
    74    30    76 1
    75    30    77 1
    76    30    78 1
    77    31    32 1
    78    32    33 1
    79    32    79 1
    80    32    80 1
    81    33    34 1
    82    33    81 1
    83    33    82 1
    84    34    35 1
    85    34    83 1
    86    34    84 1
    87    35    85 1
@<TRIPOS>SUBSTRUCTURE
     1 OCC         1 TEMP              0 ****  ****    0 ROOT
