@<TRIPOS>MOLECULE
OCC
   85    87     1     0     0
SMALL
bcc


@<TRIPOS>ATOM
      1 C5          0.0650   -0.2050    0.0480 ce        1 OCC     -0.096200
      2 C10         1.5080   -0.4150   -0.0590 ce        1 OCC     -0.116200
      3 C1          2.2480   -0.7080    1.2220 c3        1 OCC      0.159300
      4 C2          1.4890   -1.7310    2.0830 c3        1 OCC      0.075100
      5 C3          0.0010   -1.3670    2.2420 c3        1 OCC      0.155100
      6 C4         -0.6610   -1.2100    0.8780 c3        1 OCC     -0.041200
      7 C6         -0.6070    0.7930   -0.5610 cf        1 OCC     -0.101000
      8 C7         -0.0010    1.8280   -1.3660 cf        1 OCC     -0.160000
      9 C8         -0.6360    2.5990   -2.2640 c2        1 OCC     -0.070400
     10 C14         0.0480    3.6520   -3.0600 c3        1 OCC     -0.039500
     11 C13        -0.6560    5.0290   -2.8910 c3        1 OCC     -0.040000
     12 C12        -2.0590    4.8780   -3.4580 c3        1 OCC     -0.067400
     13 C11        -2.8170    3.7790   -2.7350 c3        1 OCC     -0.073400
     14 C9         -2.0720    2.4570   -2.6550 c3        1 OCC     -0.046200
     15 C15         1.5200    3.9660   -2.8450 c3        1 OCC     -0.074400
     16 C16         1.6970    5.3760   -3.4120 c3        1 OCC     -0.079400
     17 C17         0.2930    5.9520   -3.6910 c3        1 OCC     -0.053700
     18 C19         2.1640   -0.3690   -1.2250 c2        1 OCC     -0.179000
     19 O2         -0.6900   -2.4040    2.9190 oh        1 OCC     -0.599800
     20 O1          2.5360    0.4760    1.9440 oh        1 OCC     -0.582800
     21 C20         0.2190    7.4440   -3.3820 c3        1 OCC     -0.055700
     22 C22         1.2280    8.2120   -4.2350 c3        1 OCC     -0.079400
     23 C18        -0.7060    5.4410   -1.4300 c3        1 OCC     -0.083100
     24 C21        -1.1710    8.0000   -3.6280 c3        1 OCC     -0.091100
     25 C23         1.6190    9.5300   -3.5980 c3        1 OCC     -0.079400
     26 C24         2.5650   10.3020   -4.4920 c3        1 OCC     -0.064400
     27 C25         3.1420   11.5480   -3.8140 c3        1 OCC      0.147800
     28 O25         3.9040   11.0750   -2.7000 oh        1 OCC     -0.597800
     29 C27         4.0610   12.2800   -4.7890 c3        1 OCC     -0.123100
     30 C26         2.0450   12.4890   -3.3320 c3        1 OCC     -0.123100
     31 O28         1.9850   -1.7760    3.4200 os        1 OCC     -0.428600
     32 C29         3.3670   -2.1270    3.5090 c3        1 OCC      0.130400
     33 C30         3.6260   -2.4750    4.9630 c3        1 OCC     -0.089400
     34 C31         5.1060   -2.7440    5.1700 c3        1 OCC      0.133400
     35 O32         5.2690   -3.1280    6.5260 oh        1 OCC     -0.598800
     36 H1          3.2730   -1.1220    0.9860 h1        1 OCC      0.073700
     37 H2          1.5830   -2.7490    1.6140 h1        1 OCC      0.060700
     38 H3         -0.0820   -0.4130    2.8360 h1        1 OCC      0.045700
     39 H41        -1.7320   -0.9170    1.0320 hc        1 OCC      0.066700
     40 H42        -0.6590   -2.2030    0.3510 hc        1 OCC      0.066700
     41 H6         -1.7020    0.8570   -0.4210 ha        1 OCC      0.126000
     42 H7          1.0840    1.9760   -1.1970 ha        1 OCC      0.136000
     43 H14        -0.0680    3.3480   -4.1450 hc        1 OCC      0.054700
     44 H121       -1.9960    4.6390   -4.5520 hc        1 OCC      0.042700
     45 H122       -2.6270    5.8400   -3.3570 hc        1 OCC      0.042700
     46 H111       -3.7940    3.6050   -3.2600 hc        1 OCC      0.041200
     47 H112       -3.0580    4.1250   -1.6950 hc        1 OCC      0.041200
     48 H91        -2.6190    1.7840   -1.9440 hc        1 OCC      0.047700
     49 H92        -2.0990    1.9600   -3.6640 hc        1 OCC      0.047700
     50 H151        1.7820    3.9480   -1.7570 hc        1 OCC      0.045700
     51 H152        2.1750    3.2280   -3.3680 hc        1 OCC      0.045700
     52 H161        2.2920    5.3450   -4.3580 hc        1 OCC      0.044200
     53 H162        2.2480    6.0190   -2.6810 hc        1 OCC      0.044200
     54 H17         0.0580    5.8180   -4.7830 hc        1 OCC      0.045700
     55 H191        3.2470   -0.5320   -1.2950 ha        1 OCC      0.120500
     56 H192        1.6530   -0.1650   -2.1750 ha        1 OCC      0.120500
     57 HO2        -0.2250   -2.5450    3.7540 ho        1 OCC      0.420000
     58 HO1         1.6960    0.8400    2.2500 ho        1 OCC      0.408000
     59 H20         0.4810    7.5980   -2.2970 hc        1 OCC      0.053700
     60 H221        0.7900    8.3960   -5.2510 hc        1 OCC      0.040200
     61 H222        2.1550    7.5980   -4.3840 hc        1 OCC      0.040200
     62 H181       -1.1230    4.6160   -0.8040 hc        1 OCC      0.038033
     63 H182        0.3220    5.6750   -1.0570 hc        1 OCC      0.038033
     64 H183       -1.3470    6.3450   -1.3000 hc        1 OCC      0.038033
     65 H211       -1.8700    7.6960   -2.8120 hc        1 OCC      0.033367
     66 H212       -1.5770    7.6320   -4.6010 hc        1 OCC      0.033367
     67 H213       -1.1450    9.1170   -3.6580 hc        1 OCC      0.033367
     68 H231        0.7020   10.1440   -3.3990 hc        1 OCC      0.048700
     69 H232        2.1170    9.3430   -2.6100 hc        1 OCC      0.048700
     70 H241        2.0350   10.6250   -5.4250 hc        1 OCC      0.047200
     71 H242        3.4190    9.6390   -4.7900 hc        1 OCC      0.047200
     72 H25         4.2720   11.8540   -2.2660 ho        1 OCC      0.397000
     73 H271        4.8810   11.6010   -5.1220 hc        1 OCC      0.042200
     74 H272        3.4810   12.6170   -5.6800 hc        1 OCC      0.042200
     75 H273        4.5160   13.1720   -4.2970 hc        1 OCC      0.042200
     76 H261        1.4920   12.0260   -2.4800 hc        1 OCC      0.042200
     77 H262        2.4870   13.4540   -2.9840 hc        1 OCC      0.042200
     78 H263        1.3300   12.6990   -4.1610 hc        1 OCC      0.042200
     79 H291        3.5880   -3.0010    2.8400 h1        1 OCC      0.036700
     80 H292        3.9820   -1.2440    3.1860 h1        1 OCC      0.036700
     81 H301        3.2970   -1.6310    5.6220 hc        1 OCC      0.068700
     82 H302        3.0300   -3.3770    5.2570 hc        1 OCC      0.068700
     83 H311        5.7100   -1.8220    4.9550 h1        1 OCC      0.021200
     84 H312        5.4560   -3.5720    4.4960 h1        1 OCC      0.021200
     85 H32         6.2140   -3.2600    6.6620 ho        1 OCC      0.400000
@<TRIPOS>BOND
     1    1    2 1   
     2    1    6 1   
     3    1    7 2   
     4    2    3 1   
     5    2   18 2   
     6    3    4 1   
     7    3   20 1   
     8    3   36 1   
     9    4    5 1   
    10    4   31 1   
    11    4   37 1   
    12    5    6 1   
    13    5   19 1   
    14    5   38 1   
    15    6   39 1   
    16    6   40 1   
    17    7    8 1   
    18    7   41 1   
    19    8    9 2   
    20    8   42 1   
    21    9   10 1   
    22    9   14 1   
    23   10   11 1   
    24   10   15 1   
    25   10   43 1   
    26   11   12 1   
    27   11   17 1   
    28   11   23 1   
    29   12   13 1   
    30   12   44 1   
    31   12   45 1   
    32   13   14 1   
    33   13   46 1   
    34   13   47 1   
    35   14   48 1   
    36   14   49 1   
    37   15   16 1   
    38   15   50 1   
    39   15   51 1   
    40   16   17 1   
    41   16   52 1   
    42   16   53 1   
    43   17   21 1   
    44   17   54 1   
    45   18   55 1   
    46   18   56 1   
    47   19   57 1   
    48   20   58 1   
    49   21   22 1   
    50   21   24 1   
    51   21   59 1   
    52   22   25 1   
    53   22   60 1   
    54   22   61 1   
    55   23   62 1   
    56   23   63 1   
    57   23   64 1   
    58   24   65 1   
    59   24   66 1   
    60   24   67 1   
    61   25   26 1   
    62   25   68 1   
    63   25   69 1   
    64   26   27 1   
    65   26   70 1   
    66   26   71 1   
    67   27   28 1   
    68   27   29 1   
    69   27   30 1   
    70   28   72 1   
    71   29   73 1   
    72   29   74 1   
    73   29   75 1   
    74   30   76 1   
    75   30   77 1   
    76   30   78 1   
    77   31   32 1   
    78   32   33 1   
    79   32   79 1   
    80   32   80 1   
    81   33   34 1   
    82   33   81 1   
    83   33   82 1   
    84   34   35 1   
    85   34   83 1   
    86   34   84 1   
    87   35   85 1   
@<TRIPOS>SUBSTRUCTURE
     1 OCC         1 TEMP              0 ****  ****    0 ROOT
