@<TRIPOS>MOLECULE
molecule
   55    54     1     0     0
SMALL
bcc


@<TRIPOS>ATOM
      1 C1           0.0000     0.0000     0.0000 c          1 OCD       0.567900
      2 O1           1.2070     0.0000     0.0000 o          1 OCD      -0.522100
      3 C2          -0.7540     0.0000     1.3050 c3         1 OCD      -0.204400
      4 C3          -1.7200     1.1850     1.3360 c3         1 OCD      -0.075400
      5 C4          -2.4850     1.1850     2.6610 c3         1 OCD      -0.080400
      6 C5          -3.4520     2.3700     2.6920 c3         1 OCD      -0.082400
      7 C6          -4.2170     2.3700     4.0170 c3         1 OCD      -0.081400
      8 C7          -5.1840     3.5560     4.0480 c3         1 OCD      -0.081400
      9 C8          -5.9480     3.5560     5.3730 c3         1 OCD      -0.081400
     10 C9          -6.9160     4.7410     5.4040 c3         1 OCD      -0.082400
     11 C10         -7.6800     4.7410     6.7290 c3         1 OCD      -0.081400
     12 C11         -8.6470     5.9260     6.7600 c3         1 OCD      -0.082400
     13 C12         -9.4120     5.9260     8.0850 c3         1 OCD      -0.081400
     14 C13        -10.3790     7.1110     8.1160 c3         1 OCD      -0.082400
     15 C14        -11.1440     7.1120     9.4410 c3         1 OCD      -0.081400
     16 C15        -12.1100     8.2960     9.4720 c3         1 OCD      -0.082400
     17 C16        -12.8750     8.2970    10.7970 c3         1 OCD      -0.081400
     18 C17        -13.8420     9.4830    10.8290 c3         1 OCD      -0.084400
     19 C18        -14.6070     9.4820    12.1530 c3         1 OCD      -0.092100
     20 H1          -0.5410    -0.0370    -0.9380 h4         1 OCD      -0.006800
     21 H2          -1.3120    -0.9240     1.4000 hc         1 OCD       0.068200
     22 H3          -0.0530     0.0840     2.1270 hc         1 OCD       0.068200
     23 H4          -1.1620     2.1090     1.2410 hc         1 OCD       0.045200
     24 H5          -2.4210     1.1000     0.5140 hc         1 OCD       0.045200
     25 H6          -1.7840     1.2700     3.4830 hc         1 OCD       0.043700
     26 H7          -3.0430     0.2620     2.7560 hc         1 OCD       0.043700
     27 H8          -2.8940     3.2940     2.5970 hc         1 OCD       0.042200
     28 H9          -4.1530     2.2860     1.8700 hc         1 OCD       0.042200
     29 H10         -4.7750     1.4470     4.1120 hc         1 OCD       0.042200
     30 H11         -3.5160     2.4550     4.8390 hc         1 OCD       0.042200
     31 H12         -5.8850     3.4710     3.2270 hc         1 OCD       0.041200
     32 H13         -4.6260     4.4800     3.9530 hc         1 OCD       0.041200
     33 H14         -6.5060     2.6320     5.4680 hc         1 OCD       0.041200
     34 H15         -5.2470     3.6400     6.1940 hc         1 OCD       0.041200
     35 H16         -6.3580     5.6650     5.3090 hc         1 OCD       0.041200
     36 H17         -7.6170     4.6570     4.5830 hc         1 OCD       0.041200
     37 H18         -8.2380     3.8170     6.8240 hc         1 OCD       0.041200
     38 H19         -6.9790     4.8250     7.5500 hc         1 OCD       0.041200
     39 H20         -8.0890     6.8500     6.6650 hc         1 OCD       0.040700
     40 H21         -9.3480     5.8420     5.9380 hc         1 OCD       0.040700
     41 H22         -9.9700     5.0030     8.1800 hc         1 OCD       0.040700
     42 H23         -8.7110     6.0110     8.9070 hc         1 OCD       0.040700
     43 H24         -9.8210     8.0350     8.0210 hc         1 OCD       0.040700
     44 H25        -11.0800     7.0270     7.2940 hc         1 OCD       0.040700
     45 H26        -10.4430     7.1960    10.2630 hc         1 OCD       0.040700
     46 H27        -11.7020     6.1880     9.5360 hc         1 OCD       0.040700
     47 H28        -11.5520     9.2200     9.3770 hc         1 OCD       0.040700
     48 H29        -12.8110     8.2120     8.6500 hc         1 OCD       0.040700
     49 H30        -12.1740     8.3800    11.6190 hc         1 OCD       0.040700
     50 H31        -13.4340     7.3730    10.8920 hc         1 OCD       0.040700
     51 H32        -13.2830    10.4060    10.7350 hc         1 OCD       0.039700
     52 H33        -14.5430     9.3990    10.0070 hc         1 OCD       0.039700
     53 H34        -15.2910    10.3220    12.1750 hc         1 OCD       0.032367
     54 H35        -13.9060     9.5650    12.9750 hc         1 OCD       0.032367
     55 H36        -15.1660     8.5590    12.2470 hc         1 OCD       0.032367
@<TRIPOS>BOND
     1     2     1 2
     2     1     3 1
     3     3     4 1
     4     4     5 1
     5     5     6 1
     6     6     7 1
     7     7     8 1
     8    15    14 1
     9    15    16 1
    10     8     9 1
    11     9    10 1
    12    17    16 1
    13    17    18 1
    14    14    13 1
    15    13    12 1
    16    19    18 1
    17    10    11 1
    18    12    11 1
    19     1    20 1
    20     3    21 1
    21     3    22 1
    22     4    23 1
    23     4    24 1
    24     5    25 1
    25     5    26 1
    26     6    27 1
    27     6    28 1
    28     7    29 1
    29     7    30 1
    30     8    31 1
    31     8    32 1
    32     9    33 1
    33     9    34 1
    34    10    35 1
    35    10    36 1
    36    11    37 1
    37    11    38 1
    38    12    39 1
    39    12    40 1
    40    13    41 1
    41    13    42 1
    42    14    43 1
    43    14    44 1
    44    15    45 1
    45    15    46 1
    46    16    47 1
    47    16    48 1
    48    17    49 1
    49    17    50 1
    50    18    51 1
    51    18    52 1
    52    19    53 1
    53    19    54 1
    54    19    55 1
@<TRIPOS>SUBSTRUCTURE
     1 OCD         1 TEMP              0 ****  ****    0 ROOT
