@<TRIPOS>MOLECULE
molecule
   24    23     1     0     0
SMALL
bcc


@<TRIPOS>ATOM
      1 OAO          0.0000     0.0000     0.0000 o          1 OCE      -0.869800
      2 OAP          2.4770     0.0000    -8.7480 o          1 OCE      -0.869800
      3 CAX          1.7350    -0.0000    -3.7930 c3         1 OCE      -0.087400
      4 CAY          0.7420    -0.0000    -4.9550 c3         1 OCE      -0.087400
      5 CAZ          0.9690    -0.0000    -2.4680 c3         1 OCE      -0.065400
      6 CBA          1.5080    -0.0000    -6.2800 c3         1 OCE      -0.065400
      7 CBN          1.9630    -0.0000    -1.3040 c3         1 OCE      -0.181400
      8 CBO          0.5140    -0.0000    -7.4440 c3         1 OCE      -0.181400
      9 CCW          1.2080     0.0000     0.0000 c          1 OCE       0.891600
     10 CCX          1.2690    -0.0000    -8.7480 c          1 OCE       0.891600
     11 HAX          2.3580    -0.8850    -3.8500 hc         1 OCE       0.025700
     12 HAXA         2.3580     0.8850    -3.8500 hc         1 OCE       0.025700
     13 HAY          0.1190    -0.8850    -4.8980 hc         1 OCE       0.025700
     14 HAYA         0.1190     0.8850    -4.8980 hc         1 OCE       0.025700
     15 HAZ          0.3460    -0.8850    -2.4110 hc         1 OCE       0.039700
     16 HAZA         0.3460     0.8850    -2.4110 hc         1 OCE       0.039700
     17 HBA          2.1310     0.8850    -6.3370 hc         1 OCE       0.039700
     18 HBAA         2.1310    -0.8850    -6.3370 hc         1 OCE       0.039700
     19 HBN          2.5860     0.8850    -1.3610 hc         1 OCE       0.024700
     20 HBNA         2.5860    -0.8850    -1.3610 hc         1 OCE       0.024700
     21 HBO         -0.1090    -0.8850    -7.3870 hc         1 OCE       0.024700
     22 HBOA        -0.1090     0.8850    -7.3870 hc         1 OCE       0.024700
     23 O3           1.8790     0.0000     1.1640 o          1 OCE      -0.869800
     24 O4           0.5980    -0.0000    -9.9120 o          1 OCE      -0.869800
@<TRIPOS>BOND
     1     1     9 1
     2     2    10 1
     3     3     4 1
     4     3     5 1
     5     3    11 1
     6     3    12 1
     7     4     6 1
     8     4    13 1
     9     4    14 1
    10     5     7 1
    11     5    15 1
    12     5    16 1
    13     6     8 1
    14     6    17 1
    15     6    18 1
    16     7     9 1
    17     7    19 1
    18     7    20 1
    19     8    10 1
    20     8    21 1
    21     8    22 1
    22     9    23 1
    23    10    24 1
@<TRIPOS>SUBSTRUCTURE
     1 OCE         1 TEMP              0 ****  ****    0 ROOT
