@<TRIPOS>MOLECULE
OCE
   24    22     1     0     0
SMALL
bcc


@<TRIPOS>ATOM
      1 OAO         1.8020    1.2460  148.8120 o         1 OCE     -0.589500
      2 OAP        -1.2890   -1.1380 -186.8350 o         1 OCE     -0.585000
      3 CAX         5.3160    1.5340  146.3650 c3        1 OCE     -0.204000
      4 CAY        -2.2880   -2.6550 -182.6440 c3        1 OCE     -0.191000
      5 CAZ         4.1450    1.8840  147.2470 c3        1 OCE     -0.148000
      6 CBA        -2.0480   -1.6100 -183.7070 c3        1 OCE     -0.206000
      7 CBN         4.2050    1.1820  148.5820 c3        1 OCE     -0.221000
      8 CBO        -2.5340   -2.0030 -185.0230 c1        1 OCE     -0.089000
      9 CCW         2.9160    1.4040  149.3920 c2        1 OCE      0.327000
     10 CCX        -2.3520   -1.0530 -186.1430 c2        1 OCE      0.286000
     11 HAX         6.2790    1.8080  146.8600 hc        1 OCE      0.049333
     12 HAXA       -2.5530   -0.6460 -183.4070 hc        1 OCE      0.101000
     13 HAY         5.2550    2.0780  145.3910 hc        1 OCE      0.049333
     14 HAYA        5.3350    0.4370  146.1540 hc        1 OCE      0.049333
     15 HAZ         3.1820    1.6050  146.7410 hc        1 OCE      0.081500
     16 HAZA        4.1200    2.9930  147.4130 hc        1 OCE      0.081500
     17 HBA        -1.9000   -2.3080 -181.6550 hc        1 OCE      0.055667
     18 HBAA       -1.7740   -3.6090 -182.9140 hc        1 OCE      0.055667
     19 HBN         4.3260    0.0800  148.4270 hc        1 OCE      0.057000
     20 HBNA        5.0820    1.5440  149.1730 hc        1 OCE      0.057000
     21 HBO        -0.9440   -1.3920 -183.7780 hc        1 OCE      0.101000
     22 HBOA       -3.3790   -2.8650 -182.5440 hc        1 OCE      0.055667
     23 O3          3.0330    1.7170  150.6120 o         1 OCE     -0.589500
     24 O4         -3.2790   -0.2170 -186.3770 o         1 OCE     -0.585000
@<TRIPOS>BOND
     1    1    9 1   
     2    2   10 1   
     3    3    5 1   
     4    3   11 1   
     5    3   13 1   
     6    3   14 1   
     7    4    6 1   
     8    4   17 1   
     9    4   18 1   
    10    4   22 1   
    11    5    7 1   
    12    5   15 1   
    13    5   16 1   
    14    6    8 1   
    15    6   12 1   
    16    6   21 1   
    17    7    9 1   
    18    7   19 1   
    19    7   20 1   
    20    8   10 1   
    21    9   23 1   
    22   10   24 1   
@<TRIPOS>SUBSTRUCTURE
     1 OCE         1 TEMP              0 ****  ****    0 ROOT
