@<TRIPOS>MOLECULE
OCG
   48    51     1     0     0
SMALL
bcc


@<TRIPOS>ATOM
      1 N1         -0.0060   -0.1520   -0.1100 na        1 OCG      0.110300
      2 N2          1.3520   -0.1540   -0.0720 nc        1 OCG     -0.500800
      3 C3          1.7190   -0.0360    1.2180 cd        1 OCG      0.362200
      4 C4          0.5620    0.0690    2.0790 cd        1 OCG     -0.427900
      5 C5         -0.5590   -0.0050    1.1900 cc        1 OCG      0.240300
      6 N6         -1.8890   -0.0220    1.5120 nh        1 OCG     -0.823200
      7 C7          0.4630    0.2550    3.5160 c         1 OCG      0.738700
      8 O8         -0.6370    0.4650    4.0780 o         1 OCG     -0.637100
      9 N9          1.6570    0.1960    4.2330 n         1 OCG     -0.469100
     10 C10         1.7990    0.3310    5.6220 ca        1 OCG      0.073600
     11 C11         2.9440   -0.2170    6.2660 ca        1 OCG     -0.106300
     12 C12         3.1010   -0.0510    7.6440 ca        1 OCG     -0.111000
     13 C13         2.1560    0.6270    8.4060 ca        1 OCG     -0.131000
     14 C14         1.0310    1.1630    7.7760 ca        1 OCG     -0.129600
     15 C15         0.8510    1.0310    6.4000 ca        1 OCG     -0.097000
     16 C16         0.0040    1.9250    8.5470 c         1 OCG      0.692700
     17 O17        -0.4340    3.0220    8.1660 o         1 OCG     -0.571100
     18 N18        -0.4300    1.3130    9.7240 n         1 OCG     -0.537400
     19 C19        -1.3780    1.8450   10.5890 cc        1 OCG      0.435200
     20 N20        -1.8180    1.2380   11.7350 nd        1 OCG     -0.420300
     21 O21        -2.7070    2.0270   12.3060 os        1 OCG     -0.120100
     22 C22        -2.8910    3.2000   11.5480 cd        1 OCG      0.252600
     23 C23        -2.0740    3.1410   10.4460 cc        1 OCG     -0.348600
     24 C24         3.9780   -0.9590    5.5050 c3        1 OCG     -0.058800
     25 C25        -0.7580   -0.2080   -1.3170 ca        1 OCG      0.011800
     26 C26        -0.3820    0.5830   -2.4230 ca        1 OCG     -0.128500
     27 C27        -1.1300    0.5250   -3.5960 ca        1 OCG     -0.120500
     28 C28        -2.2460   -0.3040   -3.6870 ca        1 OCG     -0.126000
     29 C29        -2.6110   -1.0960   -2.6000 ca        1 OCG     -0.120500
     30 C30        -1.8730   -1.0640   -1.4190 ca        1 OCG     -0.128500
     31 H3          2.7710   -0.0190    1.5080 h4        1 OCG      0.041100
     32 HN6        -2.0920    0.2430    2.4560 hn        1 OCG      0.444800
     33 HN6A       -2.5440    0.2420    0.8120 hn        1 OCG      0.444800
     34 HN9         2.4730   -0.0830    3.7350 hn        1 OCG      0.320500
     35 H12         3.9930   -0.4690    8.1370 ha        1 OCG      0.138000
     36 H13         2.3110    0.7490    9.4880 ha        1 OCG      0.140000
     37 H15        -0.0420    1.4810    5.9290 ha        1 OCG      0.187000
     38 HN18       -0.0660    0.4110    9.9450 hn        1 OCG      0.338500
     39 H22        -3.6120    3.9000   11.9560 h4        1 OCG      0.063100
     40 H23        -1.9330    3.8460    9.6300 ha        1 OCG      0.206000
     41 H24         4.7640   -1.3650    6.1890 hc        1 OCG      0.047367
     42 H24A        4.4830   -0.2870    4.7660 hc        1 OCG      0.047367
     43 H24B        3.5250   -1.8200    4.9540 hc        1 OCG      0.047367
     44 H26         0.5030    1.2360   -2.3690 ha        1 OCG      0.155000
     45 H27        -0.8320    1.1440   -4.4570 ha        1 OCG      0.140500
     46 H28        -2.8330   -0.3390   -4.6170 ha        1 OCG      0.140000
     47 H29        -3.4840   -1.7630   -2.6720 ha        1 OCG      0.140500
     48 H30        -2.1570   -1.7260   -0.5860 ha        1 OCG      0.155000
@<TRIPOS>BOND
     1    1    2 1   
     2    1    5 1   
     3    1   25 1   
     4    2    3 2   
     5    3    4 1   
     6    3   31 1   
     7    4    5 2   
     8    4    7 1   
     9    5    6 1   
    10    6   32 1   
    11    6   33 1   
    12    7    8 2   
    13    7    9 1   
    14    9   10 1   
    15    9   34 1   
    16   10   11 ar  
    17   10   15 ar  
    18   11   12 ar  
    19   11   24 1   
    20   12   13 ar  
    21   12   35 1   
    22   13   14 ar  
    23   13   36 1   
    24   14   15 ar  
    25   14   16 1   
    26   15   37 1   
    27   16   17 2   
    28   16   18 1   
    29   18   19 1   
    30   18   38 1   
    31   19   20 2   
    32   19   23 1   
    33   20   21 1   
    34   21   22 1   
    35   22   23 2   
    36   22   39 1   
    37   23   40 1   
    38   24   41 1   
    39   24   42 1   
    40   24   43 1   
    41   25   26 ar  
    42   25   30 ar  
    43   26   27 ar  
    44   26   44 1   
    45   27   28 ar  
    46   27   45 1   
    47   28   29 ar  
    48   28   46 1   
    49   29   30 ar  
    50   29   47 1   
    51   30   48 1   
@<TRIPOS>SUBSTRUCTURE
     1 OCG         1 TEMP              0 ****  ****    0 ROOT
