@<TRIPOS>MOLECULE
OCH
   18    19     1     0     0
SMALL
bcc


@<TRIPOS>ATOM
      1 O1         -0.0770    0.0030   -0.0770 o         1 OCH     -0.632500
      2 N2          2.1980    0.0010   -0.0120 n         1 OCH     -0.445100
      3 C3          3.3940    0.0010    0.6940 ca        1 OCH      0.098600
      4 C4          4.6430   -0.0010    0.0180 ca        1 OCH     -0.186000
      5 C5          5.8210   -0.0010    0.7440 ca        1 OCH     -0.077000
      6 C6          5.8030    0.0000    2.1460 ca        1 OCH     -0.169000
      7 C7          4.5950    0.0020    2.8210 ca        1 OCH     -0.070000
      8 C8          3.3790    0.0020    2.1170 ca        1 OCH     -0.138800
      9 C9          2.1060    0.0040    2.7960 cc        1 OCH     -0.031200
     10 C10         0.9510    0.0040    2.0980 cd        1 OCH     -0.232200
     11 C1          0.9510    0.0030    0.6280 c         1 OCH      0.691700
     12 HN2         2.2250    0.0000   -1.0080 hn        1 OCH      0.332500
     13 H4          4.6740   -0.0020   -1.0820 ha        1 OCH      0.139000
     14 H5          6.7860   -0.0030    0.2140 ha        1 OCH      0.137000
     15 H6          6.7510   -0.0000    2.7040 ha        1 OCH      0.139000
     16 H7          4.5720    0.0030    3.9220 ha        1 OCH      0.137000
     17 H9          2.1130    0.0050    3.8970 ha        1 OCH      0.142000
     18 H10        -0.0420    0.0060    2.5690 ha        1 OCH      0.165000
@<TRIPOS>BOND
     1    1   11 2   
     2    2    3 1   
     3    2   11 1   
     4    2   12 1   
     5    3    4 ar  
     6    3    8 ar  
     7    4    5 ar  
     8    4   13 1   
     9    5    6 ar  
    10    5   14 1   
    11    6    7 ar  
    12    6   15 1   
    13    7    8 ar  
    14    7   16 1   
    15    8    9 1   
    16    9   10 2   
    17    9   17 1   
    18   10   11 1   
    19   10   18 1   
@<TRIPOS>SUBSTRUCTURE
     1 OCH         1 TEMP              0 ****  ****    0 ROOT
