@<TRIPOS>MOLECULE
OCP
   97    96     1     0     0
SMALL
bcc


@<TRIPOS>ATOM
      1 P1           0.0000     0.0000     0.0000 p5         1 OCP       0.633600
      2 O1           1.6100     0.0000     0.0000 os         1 OCP      -0.446200
      3 O2          -0.5370     0.0000     1.5180 o          1 OCP      -0.669000
      4 O4          -0.4930    -1.2090    -0.6970 o          1 OCP      -0.669000
      5 O5           4.0670    -1.2640    -0.6360 os         1 OCP      -0.422900
      6 O6           4.1790     0.9500    -0.6970 o          1 OCP      -0.638000
      7 O7           5.4070    -4.4920     2.5980 o          1 OCP      -0.666000
      8 C1           2.0240    -1.1840     0.6850 c3         1 OCP       0.226400
      9 C2           3.5510    -1.2450     0.7200 c3         1 OCP       0.175100
     10 C3           3.9940    -2.5120     1.4540 c3         1 OCP       0.241400
     11 C4          -0.6080     1.4870    -0.8600 c3         1 OCP      -0.038600
     12 C5          -2.1380     1.4880    -0.8600 c3         1 OCP       0.013600
     13 C6          -2.6490     2.7350    -1.5820 c3         1 OCP      -0.038400
     14 C7          -4.1790     2.7350    -1.5810 c3         1 OCP      -0.029400
     15 C8          -4.6900     3.9830    -2.3030 c3         1 OCP      -0.031400
     16 C9          -6.2190     3.9820    -2.3030 c3         1 OCP      -0.030400
     17 C10         -6.7300     5.2310    -3.0260 c3         1 OCP      -0.029400
     18 C11         -8.2600     5.2300    -3.0250 c3         1 OCP       0.005900
     19 C12          6.0630    -3.6050     2.0860 c          1 OCP       0.686100
     20 N1           7.4090    -3.6600     2.1170 ns         1 OCP      -0.189900
     21 C13          8.0830    -4.7850     2.7690 c3         1 OCP       0.065000
     22 C14          9.5980    -4.6050     2.6640 c3         1 OCP      -0.043400
     23 C15         10.3010    -5.7800     3.3440 c3         1 OCP      -0.022400
     24 C16         11.8160    -5.5990     3.2400 c3         1 OCP      -0.029400
     25 C17         12.5200    -6.7750     3.9200 c3         1 OCP      -0.028400
     26 C18         14.0350    -6.5930     3.8150 c3         1 OCP      -0.029400
     27 C19         14.7380    -7.7700     4.4950 c3         1 OCP      -0.028400
     28 C20         16.2540    -7.5890     4.3900 c3         1 OCP       0.006900
     29 N2           4.8320    -0.1280    -2.5240 ns         1 OCP      -0.200900
     30 C23          5.1420     1.1290    -3.2100 c3         1 OCP       0.069000
     31 C24          5.6650     0.8290    -4.6150 c3         1 OCP      -0.043400
     32 C25          5.9890     2.1420    -5.3300 c3         1 OCP      -0.022400
     33 C26          6.5130     1.8420    -6.7360 c3         1 OCP      -0.029400
     34 C27          6.8360     3.1550    -7.4510 c3         1 OCP      -0.029400
     35 C28          7.3600     2.8550    -8.8570 c3         1 OCP      -0.029400
     36 C29          7.6840     4.1670    -9.5720 c3         1 OCP      -0.028400
     37 C30          8.2070     3.8680   -10.9770 c3         1 OCP       0.005900
     38 H11          1.6400    -1.1680     1.6980 h1         1 OCP       0.020700
     39 H12          1.6390    -2.0540     0.1670 h1         1 OCP       0.020700
     40 H2           3.9340    -0.3750     1.2390 h1         1 OCP       0.039700
     41 H31          3.6090    -3.3820     0.9360 h1         1 OCP       0.019700
     42 H32          3.6100    -2.4960     2.4670 h1         1 OCP       0.019700
     43 H41         -0.2470     1.4860    -1.8810 hc         1 OCP       0.011700
     44 H42         -0.2470     2.3720    -0.3500 hc         1 OCP       0.011700
     45 H51         -2.4990     1.4890     0.1620 hc         1 OCP       0.025700
     46 H52         -2.4990     0.6020    -1.3690 hc         1 OCP       0.025700
     47 H61         -2.2890     2.7340    -2.6030 hc         1 OCP       0.002700
     48 H62         -2.2880     3.6200    -1.0720 hc         1 OCP       0.002700
     49 H71         -4.5390     2.7350    -0.5600 hc         1 OCP       0.013700
     50 H72         -4.5400     1.8500    -2.0910 hc         1 OCP       0.013700
     51 H81         -4.3290     3.9830    -3.3240 hc         1 OCP       0.009200
     52 H82         -4.3290     4.8680    -1.7930 hc         1 OCP       0.009200
     53 H91         -6.5800     3.0970    -2.8130 hc         1 OCP       0.013700
     54 H92         -6.5800     3.9830    -1.2820 hc         1 OCP       0.013700
     55 H101        -6.3690     5.2300    -4.0470 hc         1 OCP       0.009200
     56 H102        -6.3690     6.1160    -2.5160 hc         1 OCP       0.009200
     57 H111        -8.6210     4.3400    -3.5250 hc         1 OCP      -0.003967
     58 H112        -8.6210     5.2420    -2.0040 hc         1 OCP      -0.003967
     59 H113        -8.6220     6.1090    -3.5460 hc         1 OCP      -0.003967
     60 HN1          7.9490    -2.9260     1.7030 hn         1 OCP       0.174500
     61 H131         7.7950    -5.7090     2.2820 h1         1 OCP       0.024200
     62 H132         7.7950    -4.8220     3.8130 h1         1 OCP       0.024200
     63 H141         9.8860    -3.6810     3.1510 hc         1 OCP       0.016700
     64 H142         9.8860    -4.5670     1.6200 hc         1 OCP       0.016700
     65 H151        10.0130    -5.8180     4.3880 hc         1 OCP       0.017700
     66 H152        10.0140    -6.7040     2.8570 hc         1 OCP       0.017700
     67 H161        12.1040    -5.5610     2.1960 hc         1 OCP       0.014200
     68 H162        12.1030    -4.6750     3.7270 hc         1 OCP       0.014200
     69 H171        12.2320    -7.6990     3.4330 hc         1 OCP       0.014700
     70 H172        12.2330    -6.8130     4.9640 hc         1 OCP       0.014700
     71 H181        14.3230    -6.5560     2.7710 hc         1 OCP       0.014200
     72 H182        14.3230    -5.6700     4.3020 hc         1 OCP       0.014200
     73 H191        14.4500    -8.6940     4.0080 hc         1 OCP       0.011700
     74 H192        14.4500    -7.8080     5.5390 hc         1 OCP       0.011700
     75 H201        16.5420    -6.6670     4.8810 hc         1 OCP      -0.001300
     76 H202        16.7510    -8.4240     4.8690 hc         1 OCP      -0.001300
     77 H203        16.5410    -7.5470     3.3470 hc         1 OCP      -0.001300
     78 HN2          4.9770    -1.0020    -2.9910 hn         1 OCP       0.168500
     79 H231         4.2450     1.7320    -3.2800 h1         1 OCP       0.023200
     80 H232         5.8960     1.6680    -2.6510 h1         1 OCP       0.023200
     81 H241         4.9100     0.2900    -5.1740 hc         1 OCP       0.015200
     82 H242         6.5620     0.2260    -4.5450 hc         1 OCP       0.015200
     83 H251         6.7440     2.6810    -4.7710 hc         1 OCP       0.017700
     84 H252         5.0920     2.7460    -5.4000 hc         1 OCP       0.017700
     85 H261         5.7570     1.3030    -7.2950 hc         1 OCP       0.013700
     86 H262         7.4090     1.2380    -6.6660 hc         1 OCP       0.013700
     87 H271         7.5920     3.6940    -6.8920 hc         1 OCP       0.015200
     88 H272         5.9400     3.7580    -7.5210 hc         1 OCP       0.015200
     89 H281         8.2560     2.2510    -8.7870 hc         1 OCP       0.013700
     90 H282         6.6040     2.3160    -9.4160 hc         1 OCP       0.013700
     91 H291         8.4390     4.7070    -9.0130 hc         1 OCP       0.011700
     92 H292         6.7870     4.7710    -9.6430 hc         1 OCP       0.011700
     93 H301         7.4550     3.3230   -11.5340 hc         1 OCP      -0.001633
     94 H302         9.1080     3.2710   -10.9070 hc         1 OCP      -0.001633
     95 H303         8.4290     4.7990   -11.4860 hc         1 OCP      -0.001633
     96 O3           5.4450    -2.5710     1.4870 os         1 OCP      -0.429900
     97 C22          4.3520    -0.1100    -1.2650 c          1 OCP       0.698100
@<TRIPOS>BOND
     1     1     2 1   
     2     1     3 1   
     3     1     4 1   
     4     1    11 1   
     5     2     8 1   
     6     5     9 1   
     7     5    97 1   
     8     6    97 2   
     9     7    19 2   
    10     8     9 1   
    11     8    38 1   
    12     8    39 1   
    13     9    10 1   
    14     9    40 1   
    15    10    41 1   
    16    10    42 1   
    17    10    96 1   
    18    11    12 1   
    19    11    43 1   
    20    11    44 1   
    21    12    13 1   
    22    12    45 1   
    23    12    46 1   
    24    13    14 1   
    25    13    47 1   
    26    13    48 1   
    27    14    15 1   
    28    14    49 1   
    29    14    50 1   
    30    15    16 1   
    31    15    51 1   
    32    15    52 1   
    33    16    17 1   
    34    16    53 1   
    35    16    54 1   
    36    17    18 1   
    37    17    55 1   
    38    17    56 1   
    39    18    57 1   
    40    18    58 1   
    41    18    59 1   
    42    19    20 1   
    43    19    96 1   
    44    20    21 1   
    45    20    60 1   
    46    21    22 1   
    47    21    61 1   
    48    21    62 1   
    49    22    23 1   
    50    22    63 1   
    51    22    64 1   
    52    23    24 1   
    53    23    65 1   
    54    23    66 1   
    55    24    25 1   
    56    24    67 1   
    57    24    68 1   
    58    25    26 1   
    59    25    69 1   
    60    25    70 1   
    61    26    27 1   
    62    26    71 1   
    63    26    72 1   
    64    27    28 1   
    65    27    73 1   
    66    27    74 1   
    67    28    75 1   
    68    28    76 1   
    69    28    77 1   
    70    29    30 1   
    71    29    78 1   
    72    29    97 1   
    73    30    31 1   
    74    30    79 1   
    75    30    80 1   
    76    31    32 1   
    77    31    81 1   
    78    31    82 1   
    79    32    33 1   
    80    32    83 1   
    81    32    84 1   
    82    33    34 1   
    83    33    85 1   
    84    33    86 1   
    85    34    35 1   
    86    34    87 1   
    87    34    88 1   
    88    35    36 1   
    89    35    89 1   
    90    35    90 1   
    91    36    37 1   
    92    36    91 1   
    93    36    92 1   
    94    37    93 1   
    95    37    94 1   
    96    37    95 1   
@<TRIPOS>SUBSTRUCTURE
     1 OCP         1 TEMP              0 ****  ****    0 ROOT
