@<TRIPOS>MOLECULE
OCQ
   28    28     1     0     0
SMALL
bcc


@<TRIPOS>ATOM
      1 OAD          0.0000     0.0000     0.0000 o          1 OCQ      -0.641500
      2 CD2          1.2130     0.0000     0.0000 c          1 OCQ       0.618500
      3 NAH          1.9830     0.0000     1.1010 ns         1 OCQ      -0.168900
      4 CAE          3.4100     0.0080     0.7560 c3         1 OCQ       0.045000
      5 CD1          3.4760    -0.4220    -0.7270 c3         1 OCQ      -0.038400
      6 CG           2.0790    -0.0070    -1.2410 c3         1 OCQ      -0.165700
      7 CB           1.5550    -1.0270    -2.2540 c3         1 OCQ      -0.011400
      8 CA           2.3730    -0.9310    -3.5430 c3         1 OCQ      -0.187500
      9 N            2.1470     0.3780    -4.1710 nz         1 OCQ       0.058400
     10 C            1.9470    -2.0220    -4.4900 c          1 OCQ       0.582100
     11 O            1.2600    -1.7580    -5.4480 o          1 OCQ      -0.480100
     12 CMK          2.3760    -3.4450    -4.2440 c3         1 OCQ       0.163400
     13 OMP          1.8510    -4.2880    -5.2710 oh         1 OCQ      -0.552800
     14 HMP          2.1650    -5.1680    -5.1470 ho         1 OCQ       0.419000
     15 HMK1         2.0030    -3.7730    -3.2810 h1         1 OCQ       0.018700
     16 HMK2         3.4580    -3.5020    -4.2490 h1         1 OCQ       0.018700
     17 HA           3.4260    -1.0440    -3.3120 hx         1 OCQ       0.102700
     18 HN1          2.9930     0.9120    -4.1430 hn         1 OCQ       0.237133
     19 HN2          1.8660     0.2470    -5.1220 hn         1 OCQ       0.237133
     20 HB1          1.6450    -2.0240    -1.8420 hc         1 OCQ       0.068700
     21 HB2          0.5140    -0.8180    -2.4710 hc         1 OCQ       0.068700
     22 HG           2.1180     0.9840    -1.6770 hc         1 OCQ       0.028700
     23 HAH          1.6290    -0.0050     2.0370 hn         1 OCQ       0.216500
     24 HAE1         3.8170     1.0050     0.8740 h1         1 OCQ       0.033200
     25 HAE2         3.9480    -0.6990     1.3740 h1         1 OCQ       0.033200
     26 HD11         3.6140    -1.4930    -0.8110 hc         1 OCQ       0.029700
     27 HD12         4.2550     0.1190    -1.2500 hc         1 OCQ       0.029700
     28 HN3          1.4460     0.8770    -3.6590 hn         1 OCQ       0.237133
@<TRIPOS>BOND
     1     1     2 2   
     2     2     3 1   
     3     2     6 1   
     4     3     4 1   
     5     3    23 1   
     6     4     5 1   
     7     4    24 1   
     8     4    25 1   
     9     5     6 1   
    10     5    26 1   
    11     5    27 1   
    12     6     7 1   
    13     6    22 1   
    14     7     8 1   
    15     7    20 1   
    16     7    21 1   
    17     8     9 1   
    18     8    10 1   
    19     8    17 1   
    20     9    18 1   
    21     9    19 1   
    22     9    28 1   
    23    10    11 2   
    24    10    12 1   
    25    12    13 1   
    26    12    15 1   
    27    12    16 1   
    28    13    14 1   
@<TRIPOS>SUBSTRUCTURE
     1 OCQ         1 TEMP              0 ****  ****    0 ROOT
