@<TRIPOS>MOLECULE
molecule
   52    51     1     0     0
SMALL
bcc


@<TRIPOS>ATOM
      1 C1           0.0000     0.0000     0.0000 c3         1 OCR      -0.092100
      2 C2           1.5300     0.0000     0.0000 c3         1 OCR      -0.083400
      3 C3           2.0400     0.0000     1.4430 c3         1 OCR      -0.084400
      4 C4           3.5700     0.0000     1.4420 c3         1 OCR      -0.071400
      5 C5           4.0800     0.0000     2.8850 c3         1 OCR      -0.175400
      6 C6           5.5870     0.0010     2.8850 c          1 OCR       0.584300
      7 O7           6.1940     0.0000     1.8330 o          1 OCR      -0.588100
      8 C8           6.2910     0.0010     4.1050 ce         1 OCR      -0.409200
      9 C9           7.6490     0.0010     4.1040 cf         1 OCR       0.074000
     10 C11          8.3790     0.0010     5.3700 cf         1 OCR      -0.167000
     11 C12          9.7110    -0.0940     5.3710 c2         1 OCR      -0.196200
     12 C13         10.4710    -0.0620     4.0700 c3         1 OCR       0.086000
     13 C14         11.5260     1.0120     4.1300 c2         1 OCR      -0.229200
     14 C15         12.7790     0.7150     3.8910 c2         1 OCR      -0.123200
     15 C16         13.8320     1.7900     3.9510 c3         1 OCR      -0.012000
     16 C17         14.9180     1.3780     4.9100 c2         1 OCR      -0.222200
     17 C18         16.1650     1.3430     4.5130 c2         1 OCR      -0.130200
     18 C19         17.2510     0.9290     5.4740 c3         1 OCR      -0.063200
     19 C20         18.0470    -0.2320     4.8740 c3         1 OCR      -0.059400
     20 C21         19.1500    -0.6510     5.8500 c3         1 OCR      -0.183400
     21 C22         19.9340    -1.7950     5.2590 c          1 OCR       0.891600
     22 O23         20.9580    -2.3300     5.9430 o          1 OCR      -0.855800
     23 O24         19.6410    -2.2290     4.1700 o          1 OCR      -0.855800
     24 H1          -0.3610    -0.8850     0.5110 hc         1 OCR       0.030367
     25 H1A         -0.3610     0.0000    -1.0210 hc         1 OCR       0.030367
     26 H1B         -0.3610     0.8840     0.5110 hc         1 OCR       0.030367
     27 H2           1.8910     0.8850    -0.5110 hc         1 OCR       0.041700
     28 H2A          1.8910    -0.8850    -0.5110 hc         1 OCR       0.041700
     29 H3           1.6790     0.8840     1.9530 hc         1 OCR       0.037700
     30 H3A          1.6790    -0.8850     1.9530 hc         1 OCR       0.037700
     31 H4           3.9310     0.8850     0.9320 hc         1 OCR       0.053700
     32 H4A          3.9310    -0.8840     0.9320 hc         1 OCR       0.053700
     33 H5           3.7180     0.8840     3.3960 hc         1 OCR       0.059700
     34 H5A          3.7190    -0.8850     3.3960 hc         1 OCR       0.059700
     35 H8           5.7500     0.0020     5.0430 ha         1 OCR       0.145000
     36 H9           8.1910     0.0000     3.1660 ha         1 OCR       0.176000
     37 H11          8.2560     0.9050     4.7850 ha         1 OCR       0.088000
     38 H12          9.8360    -0.9830     4.7640 ha         1 OCR       0.119000
     39 H13          9.7870     0.1490     3.2570 hc         1 OCR       0.062200
     40 H13A        10.9440    -1.0230     3.9040 hc         1 OCR       0.062200
     41 H14         11.2470     2.0310     4.3700 ha         1 OCR       0.135000
     42 H15         13.0570    -0.3030     3.6500 ha         1 OCR       0.132000
     43 H16         14.2570     1.9340     2.9650 hc         1 OCR       0.047700
     44 H16A        13.3840     2.7170     4.2890 hc         1 OCR       0.047700
     45 H17         14.6670     1.1100     5.9290 ha         1 OCR       0.127000
     46 H18         16.4170     1.6110     3.4940 ha         1 OCR       0.118000
     47 H19         17.9140     1.7680     5.6520 hc         1 OCR       0.038700
     48 H19A        16.8050     0.6160     6.4100 hc         1 OCR       0.038700
     49 H20         17.3840    -1.0700     4.6960 hc         1 OCR       0.047700
     50 H20A        18.4930     0.0820     3.9380 hc         1 OCR       0.047700
     51 H21         19.8120     0.1870     6.0280 hc         1 OCR       0.027700
     52 H21A        18.7030    -0.9650     6.7860 hc         1 OCR       0.027700
@<TRIPOS>BOND
     1     1     2 1
     2     2     3 1
     3     3     4 1
     4     4     5 1
     5     5     6 1
     6     6     7 2
     7     6     8 1
     8     8     9 2
     9     9    10 1
    10    10    11 2
    11    11    12 1
    12    12    13 1
    13    13    14 2
    14    14    15 1
    15    15    16 1
    16    16    17 2
    17    17    18 1
    18    18    19 1
    19    19    20 1
    20    20    21 1
    21    21    22 1
    22    21    23 1
    23     1    24 1
    24     1    25 1
    25     1    26 1
    26     2    27 1
    27     2    28 1
    28     3    29 1
    29     3    30 1
    30     4    31 1
    31     4    32 1
    32     5    33 1
    33     5    34 1
    34     8    35 1
    35     9    36 1
    36    10    37 1
    37    11    38 1
    38    12    39 1
    39    12    40 1
    40    13    41 1
    41    14    42 1
    42    15    43 1
    43    15    44 1
    44    16    45 1
    45    17    46 1
    46    18    47 1
    47    18    48 1
    48    19    49 1
    49    19    50 1
    50    20    51 1
    51    20    52 1
@<TRIPOS>SUBSTRUCTURE
     1 OCR         1 TEMP              0 ****  ****    0 ROOT
