@<TRIPOS>MOLECULE
OCR
   52    51     1     0     0
SMALL
bcc


@<TRIPOS>ATOM
      1 C1          1.7120   -1.9770   -0.6850 c3        1 OCR     -0.092100
      2 C2          2.8660   -1.7780    0.2620 c3        1 OCR     -0.081400
      3 C3          2.7150   -0.5010    1.0610 c3        1 OCR     -0.078400
      4 C4          3.8780   -0.3080    2.0100 c3        1 OCR     -0.073400
      5 C5          3.7190    0.9680    2.8100 c3        1 OCR     -0.180400
      6 C6          4.8910    1.1840    3.7370 c         1 OCR      0.571300
      7 O7          4.7420    1.0990    4.9640 o         1 OCR     -0.547100
      8 C8          6.1540    1.5110    3.0710 ce        1 OCR     -0.282200
      9 C9          7.3690    1.6150    3.6360 cf        1 OCR     -0.022000
     10 C11         7.6860    1.4180    5.0320 cf        1 OCR     -0.193000
     11 C12         8.9130    1.5760    5.5550 c2        1 OCR     -0.104200
     12 C13        10.1200    1.9810    4.7940 c3        1 OCR     -0.027000
     13 C14        11.3390    2.0340    5.6390 c2        1 OCR     -0.206200
     14 C15        12.5270    1.5710    5.2390 c2        1 OCR     -0.134200
     15 C16        13.7630    1.6740    6.0560 c3        1 OCR     -0.012000
     16 C17        14.6460    0.4950    5.8700 c2        1 OCR     -0.224200
     17 C18        15.9370    0.5860    5.5360 c2        1 OCR     -0.122200
     18 C19        16.8350   -0.5820    5.3740 c3        1 OCR     -0.060200
     19 C20        17.7400   -0.4330    4.1650 c3        1 OCR     -0.062400
     20 C21        18.6640   -1.6150    4.0100 c3        1 OCR     -0.196400
     21 C22        19.7260   -1.3540    2.9260 c         1 OCR      0.908600
     22 O23        19.9770   -2.2900    2.1130 o         1 OCR     -0.851300
     23 O24        20.3080   -0.2310    2.9090 o         1 OCR     -0.851300
     24 H1          0.7470   -2.0370   -0.1250 hc        1 OCR      0.032033
     25 H1A         1.8430   -2.9230   -1.2640 hc        1 OCR      0.032033
     26 H1B         1.6430   -1.1290   -1.4080 hc        1 OCR      0.032033
     27 H2          2.9330   -2.6520    0.9640 hc        1 OCR      0.041200
     28 H2A         3.8270   -1.7460   -0.3160 hc        1 OCR      0.041200
     29 H3          2.6490    0.3740    0.3620 hc        1 OCR      0.039200
     30 H3A         1.7560   -0.5330    1.6430 hc        1 OCR      0.039200
     31 H4          4.8380   -0.2740    1.4300 hc        1 OCR      0.048200
     32 H4A         3.9430   -1.1830    2.7100 hc        1 OCR      0.048200
     33 H5          2.7740    0.9210    3.4140 hc        1 OCR      0.061700
     34 H5A         3.6390    1.8470    2.1180 hc        1 OCR      0.061700
     35 H8          6.0600    1.6780    1.9830 ha        1 OCR      0.129000
     36 H9          8.2290    1.8680    2.9840 ha        1 OCR      0.122000
     37 H11         6.8450    1.1190    5.6850 ha        1 OCR      0.159000
     38 H12         9.0660    1.3980    6.6340 ha        1 OCR      0.130000
     39 H13        10.2730    1.2740    3.9310 hc        1 OCR      0.057700
     40 H13A        9.9490    3.0030    4.3500 hc        1 OCR      0.057700
     41 H14        11.2100    2.5030    6.6280 ha        1 OCR      0.119000
     42 H15        12.6540    1.0920    4.2530 ha        1 OCR      0.129000
     43 H16        13.5050    1.7700    7.1470 hc        1 OCR      0.046200
     44 H16A       14.3020    2.6190    5.7630 hc        1 OCR      0.046200
     45 H17        14.1640   -0.4810    6.0320 ha        1 OCR      0.118000
     46 H18        16.4130    1.5660    5.3600 ha        1 OCR      0.119000
     47 H19        17.4680   -0.6750    6.2990 hc        1 OCR      0.038700
     48 H19A       16.2420   -1.5310    5.2850 hc        1 OCR      0.038700
     49 H20        18.3610    0.4980    4.2590 hc        1 OCR      0.046700
     50 H20A       17.1150   -0.3220    3.2410 hc        1 OCR      0.046700
     51 H21        18.0830   -2.5340    3.7470 hc        1 OCR      0.020200
     52 H21A       19.2010   -1.8110    4.9720 hc        1 OCR      0.020200
@<TRIPOS>BOND
     1    1    2 1   
     2    1   24 1   
     3    1   25 1   
     4    1   26 1   
     5    2    3 1   
     6    2   27 1   
     7    2   28 1   
     8    3    4 1   
     9    3   29 1   
    10    3   30 1   
    11    4    5 1   
    12    4   31 1   
    13    4   32 1   
    14    5    6 1   
    15    5   33 1   
    16    5   34 1   
    17    6    7 2   
    18    6    8 1   
    19    8    9 2   
    20    8   35 1   
    21    9   10 1   
    22    9   36 1   
    23   10   11 2   
    24   10   37 1   
    25   11   12 1   
    26   11   38 1   
    27   12   13 1   
    28   12   39 1   
    29   12   40 1   
    30   13   14 2   
    31   13   41 1   
    32   14   15 1   
    33   14   42 1   
    34   15   16 1   
    35   15   43 1   
    36   15   44 1   
    37   16   17 2   
    38   16   45 1   
    39   17   18 1   
    40   17   46 1   
    41   18   19 1   
    42   18   47 1   
    43   18   48 1   
    44   19   20 1   
    45   19   49 1   
    46   19   50 1   
    47   20   21 1   
    48   20   51 1   
    49   20   52 1   
    50   21   22 1   
    51   21   23 1   
@<TRIPOS>SUBSTRUCTURE
     1 OCR         1 TEMP              0 ****  ****    0 ROOT
