@<TRIPOS>MOLECULE
molecule
   26    25     1     0     0
SMALL
bcc


@<TRIPOS>ATOM
      1 C1           0.0000     0.0000     0.0000 c3         1 OCT      -0.092100
      2 C2           1.5290     0.0000     0.0000 c3         1 OCT      -0.084400
      3 C3           2.0400     0.0000     1.4420 c3         1 OCT      -0.081400
      4 C4           3.5700    -0.0000     1.4420 c3         1 OCT      -0.082400
      5 C5           4.0800    -0.0000     2.8830 c3         1 OCT      -0.082400
      6 C6           5.6100    -0.0000     2.8830 c3         1 OCT      -0.081400
      7 C7           6.1200    -0.0000     4.3250 c3         1 OCT      -0.084400
      8 C8           7.6500    -0.0000     4.3250 c3         1 OCT      -0.092100
      9 H11         -0.3610     0.8850     0.5110 hc         1 OCT       0.032367
     10 H12         -0.3610    -0.8850     0.5110 hc         1 OCT       0.032367
     11 H13         -0.3610     0.0000    -1.0210 hc         1 OCT       0.032367
     12 H21          1.8900     0.8840    -0.5110 hc         1 OCT       0.039700
     13 H22          1.8900    -0.8840    -0.5110 hc         1 OCT       0.039700
     14 H31          1.6790    -0.8840     1.9530 hc         1 OCT       0.040700
     15 H32          1.6790     0.8840     1.9530 hc         1 OCT       0.040700
     16 H41          3.9310    -0.8840     0.9310 hc         1 OCT       0.040700
     17 H42          3.9310     0.8840     0.9310 hc         1 OCT       0.040700
     18 H51          3.7190    -0.8840     3.3930 hc         1 OCT       0.040700
     19 H52          3.7190     0.8840     3.3930 hc         1 OCT       0.040700
     20 H61          5.9710     0.8840     2.3720 hc         1 OCT       0.040700
     21 H62          5.9710    -0.8840     2.3720 hc         1 OCT       0.040700
     22 H71          5.7590     0.8840     4.8360 hc         1 OCT       0.039700
     23 H72          5.7590    -0.8840     4.8360 hc         1 OCT       0.039700
     24 H81          8.0110    -0.8850     3.8140 hc         1 OCT       0.032367
     25 H82          8.0110     0.8850     3.8140 hc         1 OCT       0.032367
     26 H83          8.0110    -0.0000     5.3460 hc         1 OCT       0.032367
@<TRIPOS>BOND
     1     1     2 1
     2     1     9 1
     3     1    10 1
     4     1    11 1
     5     2     3 1
     6     2    12 1
     7     2    13 1
     8     3     4 1
     9     3    14 1
    10     3    15 1
    11     4     5 1
    12     4    16 1
    13     4    17 1
    14     5     6 1
    15     5    18 1
    16     5    19 1
    17     6     7 1
    18     6    20 1
    19     6    21 1
    20     7     8 1
    21     7    22 1
    22     7    23 1
    23     8    24 1
    24     8    25 1
    25     8    26 1
@<TRIPOS>SUBSTRUCTURE
     1 OCT         1 TEMP              0 ****  ****    0 ROOT
