@<TRIPOS>MOLECULE
OCT
   26    25     1     0     0
SMALL
bcc


@<TRIPOS>ATOM
      1 C1          0.0060   -0.0000   -0.0060 c3        1 OCT     -0.092100
      2 C2          1.5120    0.0000    0.0180 c3        1 OCT     -0.080400
      3 C3          2.0460   -0.0000    1.4350 c3        1 OCT     -0.079400
      4 C4          3.5590    0.0000    1.4540 c3        1 OCT     -0.079400
      5 C5          4.0910   -0.0000    2.8710 c3        1 OCT     -0.079400
      6 C6          5.6040    0.0000    2.8900 c3        1 OCT     -0.079400
      7 C7          6.1370   -0.0000    4.3070 c3        1 OCT     -0.080400
      8 C8          7.6440   -0.0000    4.3310 c3        1 OCT     -0.092100
      9 H11        -0.3660   -0.0000   -1.0590 hc        1 OCT      0.032700
     10 H12        -0.3970    0.9050    0.5100 hc        1 OCT      0.032700
     11 H13        -0.3970   -0.9050    0.5100 hc        1 OCT      0.032700
     12 H21         1.8980   -0.9020   -0.5270 hc        1 OCT      0.038700
     13 H22         1.8980    0.9030   -0.5260 hc        1 OCT      0.038700
     14 H31         1.6620    0.9020    1.9800 hc        1 OCT      0.039700
     15 H32         1.6630   -0.9030    1.9790 hc        1 OCT      0.039700
     16 H41         3.9420   -0.9020    0.9080 hc        1 OCT      0.039700
     17 H42         3.9420    0.9030    0.9090 hc        1 OCT      0.039700
     18 H51         3.7080   -0.9030    3.4160 hc        1 OCT      0.039700
     19 H52         3.7080    0.9020    3.4170 hc        1 OCT      0.039700
     20 H61         5.9880   -0.9020    2.3450 hc        1 OCT      0.039700
     21 H62         5.9870    0.9030    2.3450 hc        1 OCT      0.039700
     22 H71         5.7520   -0.9020    4.8510 hc        1 OCT      0.038700
     23 H72         5.7520    0.9020    4.8510 hc        1 OCT      0.038700
     24 H81         8.0470   -0.9050    3.8150 hc        1 OCT      0.032700
     25 H82         8.0160   -0.0000    5.3850 hc        1 OCT      0.032700
     26 H83         8.0470    0.9050    3.8150 hc        1 OCT      0.032700
@<TRIPOS>BOND
     1    1    2 1   
     2    1    9 1   
     3    1   10 1   
     4    1   11 1   
     5    2    3 1   
     6    2   12 1   
     7    2   13 1   
     8    3    4 1   
     9    3   14 1   
    10    3   15 1   
    11    4    5 1   
    12    4   16 1   
    13    4   17 1   
    14    5    6 1   
    15    5   18 1   
    16    5   19 1   
    17    6    7 1   
    18    6   20 1   
    19    6   21 1   
    20    7    8 1   
    21    7   22 1   
    22    7   23 1   
    23    8   24 1   
    24    8   25 1   
    25    8   26 1   
@<TRIPOS>SUBSTRUCTURE
     1 OCT         1 TEMP              0 ****  ****    0 ROOT
