@<TRIPOS>MOLECULE
molecule
   47    46     1     0     0
SMALL
bcc


@<TRIPOS>ATOM
      1 C1           0.0000     0.0000     0.0000 c          1 OCV       0.867600
      2 C2           1.5060     0.0000     0.0000 c3         1 OCV      -0.014500
      3 C3           2.0180     0.0000     1.4410 c3         1 OCV      -0.096400
      4 C4           3.5470    -0.0010     1.4410 c3         1 OCV      -0.085400
      5 C7           4.0590    -0.0020     2.8820 c3         1 OCV      -0.150400
      6 C10          5.5650    -0.0030     2.8820 c          1 OCV       0.663100
      7 N11          6.2400    -0.0030     4.0480 ns         1 OCV      -0.561900
      8 C12          7.7050    -0.0030     4.0480 c3         1 OCV       0.085700
      9 C13          8.2080    -0.7130     5.2770 c          1 OCV       0.641100
     10 N14          1.9960     1.1990    -0.6930 nz         1 OCV      -0.790600
     11 O15          6.1710    -0.0030     1.8310 o          1 OCV      -0.607100
     12 C16          8.2150     1.4390     4.0460 c3         1 OCV       0.029700
     13 S17          7.6100     2.2940     2.5660 sh         1 OCV      -0.405900
     14 O18          7.4230    -1.1720     6.0730 o          1 OCV      -0.559000
     15 O19         -0.6720    -1.1620     0.0010 o          1 OCV      -0.782300
     16 O20         -0.6040     1.0470     0.0000 o          1 OCV      -0.782300
     17 C30         10.0120    -1.5210     6.6740 c3         1 OCV       0.052100
     18 C31         10.1780    -2.9880     6.3740 c          1 OCV       0.883600
     19 C32         11.3600    -0.9300     7.0890 c3         1 OCV      -0.053700
     20 C33         12.3670    -1.1070     5.9520 c3         1 OCV      -0.088100
     21 C37         11.1910     0.5600     7.3940 c3         1 OCV      -0.088100
     22 O42         10.6190    -3.8220     7.3290 o          1 OCV      -0.828800
     23 O43          9.9160    -3.4130     5.2740 o          1 OCV      -0.828800
     24 O29          9.5270    -0.8370     5.4890 os         1 OCV      -0.411900
     25 HC2          1.8670    -0.8850    -0.5110 hx         1 OCV       0.107700
     26 HC31         1.6580     0.8850     1.9520 hc         1 OCV       0.082700
     27 HC32         1.6570    -0.8840     1.9520 hc         1 OCV       0.082700
     28 HC41         3.9080    -0.8850     0.9290 hc         1 OCV       0.046200
     29 HC42         3.9090     0.8840     0.9300 hc         1 OCV       0.046200
     30 HC71         3.6970    -0.8860     3.3930 hc         1 OCV       0.068200
     31 HC72         3.6980     0.8830     3.3930 hc         1 OCV       0.068200
     32 HN11         5.7400     0.0200     4.9150 hn         1 OCV       0.333500
     33 HC21         8.0650    -0.5140     3.1630 h1         1 OCV       0.126700
     34 H141         1.9800     1.9770    -0.0640 hn         1 OCV       0.439467
     35 H142         1.4080     1.3930    -1.4790 hn         1 OCV       0.439467
     36 H161         9.2990     1.4380     4.0450 h1         1 OCV       0.070200
     37 H162         7.8560     1.9500     4.9310 h1         1 OCV       0.070200
     38 HS17         8.2500     3.4490     2.4290 hs         1 OCV       0.184800
     39 HC03         9.2990    -1.3960     7.4800 h1         1 OCV       0.059700
     40 HC23        11.7210    -1.4400     7.9730 hc         1 OCV       0.083700
     41 H331        13.3190    -0.6810     6.2430 hc         1 OCV       0.027200
     42 H332        12.4920    -2.1620     5.7410 hc         1 OCV       0.027200
     43 H333        12.0020    -0.6020     5.0650 hc         1 OCV       0.027200
     44 H371        12.0190     0.9000     8.0040 hc         1 OCV       0.027200
     45 H372        10.2610     0.7160     7.9280 hc         1 OCV       0.027200
     46 H373        11.1720     1.1190     6.4660 hc         1 OCV       0.027200
     47 H143         2.9320     1.0420    -1.0100 hn         1 OCV       0.439467
@<TRIPOS>BOND
     1     1     2 1
     2     1    15 1
     3     1    16 1
     4     2     3 1
     5     2    10 1
     6     2    25 1
     7     3     4 1
     8     3    26 1
     9     3    27 1
    10     4     5 1
    11     4    28 1
    12     4    29 1
    13     5     6 1
    14     5    30 1
    15     5    31 1
    16     6     7 1
    17     6    11 2
    18     7     8 1
    19     7    32 1
    20     8     9 1
    21     8    12 1
    22     8    33 1
    23     9    14 2
    24     9    24 1
    25    10    34 1
    26    10    35 1
    27    12    13 1
    28    12    36 1
    29    12    37 1
    30    13    38 1
    31    17    18 1
    32    17    19 1
    33    17    24 1
    34    17    39 1
    35    18    22 1
    36    18    23 1
    37    19    20 1
    38    19    21 1
    39    19    40 1
    40    20    41 1
    41    20    42 1
    42    20    43 1
    43    21    44 1
    44    21    45 1
    45    21    46 1
    46    47    10 1
@<TRIPOS>SUBSTRUCTURE
     1 OCV         1 TEMP              0 ****  ****    0 ROOT
