@<TRIPOS>MOLECULE
OCX
   52    51     1     0     0
SMALL
bcc


@<TRIPOS>ATOM
      1 C1          1.0850   -1.2240   -0.2750 c3        1 OCX     -0.091100
      2 C2          2.4580   -0.6920    0.0470 c3        1 OCX     -0.081400
      3 C3          2.5060   -0.0760    1.4290 c3        1 OCX     -0.079400
      4 C4          3.8870    0.4590    1.7440 c3        1 OCX     -0.077400
      5 C5          3.9330    1.0730    3.1300 c3        1 OCX     -0.043200
      6 C6          5.2860    1.5850    3.4520 c2        1 OCX     -0.188200
      7 C7          5.5140    2.7890    3.9830 c2        1 OCX     -0.150200
      8 C8          6.8680    3.2840    4.3400 c3        1 OCX     -0.015000
      9 C9          7.0660    4.7020    3.9500 c2        1 OCX     -0.186200
     10 C10         8.2000    5.1580    3.4010 ce        1 OCX     -0.122000
     11 C11         8.3970    6.5480    3.0460 ce        1 OCX     -0.109000
     12 C13         9.5230    7.0810    2.5490 cf        1 OCX     -0.221200
     13 C14        10.7830    6.3650    2.2830 c         1 OCX      0.583300
     14 O15        10.8450    5.1620    1.9840 o         1 OCX     -0.585100
     15 C16        12.0260    7.2180    2.3640 c3        1 OCX     -0.172200
     16 C17        12.7210    7.0070    3.6560 c2        1 OCX     -0.173200
     17 C18        13.0430    7.9710    4.5240 c2        1 OCX     -0.153200
     18 C19        12.7440    9.4140    4.3580 c3        1 OCX     -0.054200
     19 C20        11.2970    9.7340    4.6910 c3        1 OCX     -0.054400
     20 C21        10.8960   11.0900    4.1630 c3        1 OCX     -0.197400
     21 C22        10.7940   11.1270    2.6310 c         1 OCX      0.910600
     22 O23        11.0150   12.2270    2.0530 o         1 OCX     -0.856800
     23 O24        10.4830   10.0660    2.0050 o         1 OCX     -0.856800
     24 H1          1.0720   -1.6740   -1.2970 hc        1 OCX      0.029700
     25 H1A         0.7850   -2.0100    0.4600 hc        1 OCX      0.029700
     26 H1B         0.3270   -0.4050   -0.2400 hc        1 OCX      0.029700
     27 H2          2.7510    0.0780   -0.7150 hc        1 OCX      0.039700
     28 H2A         3.2090   -1.5230   -0.0180 hc        1 OCX      0.039700
     29 H3          2.2160   -0.8440    2.1930 hc        1 OCX      0.036700
     30 H3A         1.7560    0.7560    1.4950 hc        1 OCX      0.036700
     31 H4          4.1760    1.2300    0.9830 hc        1 OCX      0.044200
     32 H4A         4.6380   -0.3720    1.6760 hc        1 OCX      0.044200
     33 H5          3.6490    0.2950    3.8910 hc        1 OCX      0.040200
     34 H5A         3.1700    1.8940    3.1990 hc        1 OCX      0.040200
     35 H6          6.1150    0.8940    3.2260 ha        1 OCX      0.120000
     36 H7          4.6870    3.4880    4.1930 ha        1 OCX      0.118000
     37 H8          6.9880    3.2030    5.4600 hc        1 OCX      0.051200
     38 H8A         7.6610    2.6340    3.8790 hc        1 OCX      0.051200
     39 H9          6.2160    5.3730    4.1530 ha        1 OCX      0.115000
     40 H10         9.0450    4.4770    3.1870 ha        1 OCX      0.148000
     41 H11         7.5310    7.2140    3.2210 ha        1 OCX      0.120000
     42 H13         9.5720    8.1740    2.3220 ha        1 OCX      0.222000
     43 H16        11.7450    8.3050    2.2130 hc        1 OCX      0.102700
     44 H16A       12.7160    6.9200    1.5280 hc        1 OCX      0.102700
     45 H17        12.9820    5.9570    3.8690 ha        1 OCX      0.105000
     46 H18        13.5720    7.7050    5.4560 ha        1 OCX      0.096000
     47 H19        13.4230   10.0200    5.0140 hc        1 OCX      0.050700
     48 H19A       12.9380    9.7310    3.2950 hc        1 OCX      0.050700
     49 H20        11.1490    9.6880    5.8020 hc        1 OCX      0.027700
     50 H20A       10.6330    8.9580    4.2200 hc        1 OCX      0.027700
     51 H21        11.6270   11.8700    4.4950 hc        1 OCX      0.025700
     52 H21A        9.8910   11.3670    4.5730 hc        1 OCX      0.025700
@<TRIPOS>BOND
     1    1    2 1   
     2    1   24 1   
     3    1   25 1   
     4    1   26 1   
     5    2    3 1   
     6    2   27 1   
     7    2   28 1   
     8    3    4 1   
     9    3   29 1   
    10    3   30 1   
    11    4    5 1   
    12    4   31 1   
    13    4   32 1   
    14    5    6 1   
    15    5   33 1   
    16    5   34 1   
    17    6    7 2   
    18    6   35 1   
    19    7    8 1   
    20    7   36 1   
    21    8    9 1   
    22    8   37 1   
    23    8   38 1   
    24    9   10 2   
    25    9   39 1   
    26   10   11 1   
    27   10   40 1   
    28   11   12 2   
    29   11   41 1   
    30   12   13 1   
    31   12   42 1   
    32   13   14 2   
    33   13   15 1   
    34   15   16 1   
    35   15   43 1   
    36   15   44 1   
    37   16   17 2   
    38   16   45 1   
    39   17   18 1   
    40   17   46 1   
    41   18   19 1   
    42   18   47 1   
    43   18   48 1   
    44   19   20 1   
    45   19   49 1   
    46   19   50 1   
    47   20   21 1   
    48   20   51 1   
    49   20   52 1   
    50   21   22 1   
    51   21   23 1   
@<TRIPOS>SUBSTRUCTURE
     1 OCX         1 TEMP              0 ****  ****    0 ROOT
