@<TRIPOS>MOLECULE
molecule
   52    51     1     0     0
SMALL
bcc


@<TRIPOS>ATOM
      1 C1           0.0000     0.0000     0.0000 c3         1 OCX      -0.092100
      2 C2           1.5300     0.0000     0.0000 c3         1 OCX      -0.084400
      3 C3           2.0400     0.0000     1.4420 c3         1 OCX      -0.082400
      4 C4           3.5690    -0.0000     1.4420 c3         1 OCX      -0.078400
      5 C5           4.0790    -0.0000     2.8860 c3         1 OCX      -0.047200
      6 C6           5.5870    -0.0000     2.8850 c2         1 OCX      -0.177200
      7 C7           6.2410     0.9290     3.5360 c2         1 OCX      -0.170200
      8 C8           7.7480     0.9290     3.5370 c3         1 OCX      -0.018000
      9 C9           8.2500     2.2640     3.0510 c2         1 OCX      -0.140200
     10 C10          9.1000     2.9710     3.8020 ce         1 OCX      -0.162000
     11 C11          9.5860     4.2660     3.3300 ce         1 OCX      -0.051000
     12 C13         10.4480     4.9850     4.0940 cf         1 OCX      -0.267200
     13 C14         10.9180     6.2320     3.6400 c          1 OCX       0.560300
     14 O15         10.5520     6.6650     2.5660 o          1 OCX      -0.525100
     15 C16         11.8740     7.0320     4.4880 c3         1 OCX      -0.135200
     16 C17         12.2200     8.3160     3.7800 c2         1 OCX      -0.204200
     17 C18         12.0370     9.4650     4.3830 c2         1 OCX      -0.134200
     18 C19         12.3830    10.7500     3.6750 c3         1 OCX      -0.060200
     19 C20         11.1610    11.6700     3.6630 c3         1 OCX      -0.059400
     20 C21         11.5110    12.9750     2.9460 c3         1 OCX      -0.183400
     21 C22         10.3070    13.8810     2.9340 c          1 OCX       0.891600
     22 O23         10.3820    15.0880     2.3540 o          1 OCX      -0.857800
     23 O24          9.2740    13.5200     3.4480 o          1 OCX      -0.857800
     24 H1          -0.3610    -0.8840     0.5120 hc         1 OCX       0.031700
     25 H1A         -0.3610     0.8850     0.5090 hc         1 OCX       0.031700
     26 H1B         -0.3610    -0.0010    -1.0210 hc         1 OCX       0.031700
     27 H2           1.8910    -0.8850    -0.5110 hc         1 OCX       0.040700
     28 H2A          1.8910     0.8850    -0.5110 hc         1 OCX       0.040700
     29 H3           1.6780     0.8850     1.9530 hc         1 OCX       0.040700
     30 H3A          1.6780    -0.8850     1.9530 hc         1 OCX       0.040700
     31 H4           3.9300    -0.8840     0.9310 hc         1 OCX       0.043700
     32 H4A          3.9300     0.8850     0.9320 hc         1 OCX       0.043700
     33 H5           3.7180     0.8840     3.3970 hc         1 OCX       0.045700
     34 H5A          3.7180    -0.8850     3.3960 hc         1 OCX       0.045700
     35 H6           6.1290    -0.7690     2.3470 ha         1 OCX       0.122000
     36 H7           5.6990     1.6970     4.0750 ha         1 OCX       0.131000
     37 H8           8.1100     0.1470     2.8800 hc         1 OCX       0.052700
     38 H8A          8.1090     0.7520     4.5430 hc         1 OCX       0.052700
     39 H9           7.9230     2.6500     2.0930 ha         1 OCX       0.135000
     40 H10          9.4270     2.5850     4.7600 ha         1 OCX       0.128000
     41 H11          9.2600     4.6520     2.3720 ha         1 OCX       0.155000
     42 H13         10.7750     4.5990     5.0520 ha         1 OCX       0.127000
     43 H16         11.4100     7.2580     5.4400 hc         1 OCX       0.058700
     44 H16A        12.7770     6.4560     4.6540 hc         1 OCX       0.058700
     45 H17         12.6200     8.2900     2.7730 ha         1 OCX       0.135000
     46 H18         11.6370     9.4910     5.3900 ha         1 OCX       0.114000
     47 H19         13.1990    11.2400     4.1920 hc         1 OCX       0.037700
     48 H19A        12.6800    10.5320     2.6560 hc         1 OCX       0.037700
     49 H20         10.8620    11.8870     4.6820 hc         1 OCX       0.048700
     50 H20A        10.3450    11.1810     3.1450 hc         1 OCX       0.048700
     51 H21         12.3260    13.4640     3.4650 hc         1 OCX       0.026700
     52 H21A        11.8100    12.7580     1.9270 hc         1 OCX       0.026700
@<TRIPOS>BOND
     1     1     2 1
     2     1    24 1
     3     1    25 1
     4     1    26 1
     5     2     3 1
     6     2    27 1
     7     2    28 1
     8     3     4 1
     9     3    29 1
    10     3    30 1
    11     4     5 1
    12     4    31 1
    13     4    32 1
    14     5     6 1
    15     5    33 1
    16     5    34 1
    17     6     7 2
    18     6    35 1
    19     7     8 1
    20     7    36 1
    21     8     9 1
    22     8    37 1
    23     8    38 1
    24     9    10 2
    25     9    39 1
    26    10    11 1
    27    10    40 1
    28    11    12 2
    29    11    41 1
    30    12    13 1
    31    12    42 1
    32    13    14 2
    33    13    15 1
    34    15    16 1
    35    15    43 1
    36    15    44 1
    37    16    17 2
    38    16    45 1
    39    17    18 1
    40    17    46 1
    41    18    19 1
    42    18    47 1
    43    18    48 1
    44    19    20 1
    45    19    49 1
    46    19    50 1
    47    20    21 1
    48    20    51 1
    49    20    52 1
    50    21    22 1
    51    21    23 1
@<TRIPOS>SUBSTRUCTURE
     1 OCX         1 TEMP              0 ****  ****    0 ROOT
