@<TRIPOS>MOLECULE
OCZ
   31    35     1     0     0
SMALL
bcc


@<TRIPOS>ATOM
      1 NAQ          0.0000     0.0000     0.0000 nz         1 OCZ       0.806000
      2 OAP          1.9550     1.0410    -0.1430 o          1 OCZ      -0.142000
      3 CAO          1.3480     0.0000     0.0000 c2         1 OCZ       0.020000
      4 NAG          4.2480     0.0000     0.7580 nu         1 OCZ       0.375000
      5 CAJ          4.1070    -3.0160    -1.3270 c3         1 OCZ      -0.456000
      6 CAD          6.6960     0.6820     0.8720 ca         1 OCZ      -0.104000
      7 CAC          7.9570     0.3330     0.4430 ca         1 OCZ      -0.040000
      8 CAE          5.5990    -0.0870     0.4980 ca         1 OCZ      -0.156000
      9 CAF          5.7940    -1.2160    -0.3210 ca         1 OCZ      -0.060000
     10 CAA          7.0820    -1.5520    -0.7440 ca         1 OCZ      -0.015000
     11 CAH          4.4700    -1.7920    -0.5270 c3         1 OCZ      -0.070000
     12 CAI          3.5880    -1.0240     0.1410 c2         1 OCZ      -0.440000
     13 CAB          8.1450    -0.7830    -0.3640 ca         1 OCZ      -0.144000
     14 CAM          2.6970    -3.4590    -0.9250 DU         1 OCZ      -0.085000
     15 CAK          2.1010    -1.2930     0.1780 c3         1 OCZ      -0.017000
     16 CAL          1.7520    -2.2540    -0.9650 c3         1 OCZ      -0.174000
     17 HAL1         0.7370    -2.6090    -0.8330 hc         1 OCZ       0.088500
     18 HAL2         1.8620    -1.7520    -1.9190 hc         1 OCZ       0.088500
     19 HAM1         2.7100    -3.9040     0.0620 ha         1 OCZ       0.094000
     20 HAM2         2.3510    -4.1820    -1.6540 ha         1 OCZ       0.094000
     21 HAK          1.8480    -1.7340     1.1350 hc         1 OCZ       0.108000
     22 HAJ1         3.3930    -2.4030    -0.7910 DU         1 OCZ       0.467000
     23 HAJ2         4.6770    -3.7650    -0.7910 hc         1 OCZ       0.102000
     24 HAA          7.2380    -2.4230    -1.3700 ha         1 OCZ       0.132000
     25 HAC1         8.7950     0.9840     0.6600 ha         1 OCZ       0.124000
     26 HAD          6.5570     1.5490     1.5070 ha         1 OCZ       0.112000
     27 HAG          3.8180     0.7090     1.3190 hn         1 OCZ       0.063000
     28 HAQ1        -0.3240     0.9240    -0.2070 hn         1 OCZ       0.046000
     29 HAQ2        -0.3340    -0.2890     0.8980 hn         1 OCZ       0.046000
     30 HAQ3        -0.3340    -0.6450    -0.6880 hn         1 OCZ       0.046000
     31 Cl           9.7450    -1.2020    -0.8920 cl         1 OCZ       0.090000
@<TRIPOS>BOND
     1     1     3 1   
     2     1    28 1   
     3     1    29 1   
     4     1    30 1   
     5     2     3 1   
     6     3    15 1   
     7     4     8 1   
     8     4    12 1   
     9     4    27 1   
    10     5    11 1   
    11     5    14 1   
    12     5    22 1   
    13     5    23 1   
    14     6     7 1   
    15     6     8 1   
    16     6    26 1   
    17     7    13 1   
    18     7    25 1   
    19     8     9 1   
    20     9    10 1   
    21     9    11 1   
    22    10    13 1   
    23    10    24 1   
    24    11    12 1   
    25    11    22 1   
    26    12    15 1   
    27    13    31 1   
    28    14    16 1   
    29    14    19 1   
    30    14    20 1   
    31    14    22 1   
    32    15    16 1   
    33    15    21 1   
    34    16    17 1   
    35    16    18 1   
@<TRIPOS>SUBSTRUCTURE
     1 OCZ         1 TEMP              0 ****  ****    0 ROOT
