@<TRIPOS>MOLECULE
molecule
   31    33     1     0     0
SMALL
bcc


@<TRIPOS>ATOM
      1 NAQ          0.0000     0.0000     0.0000 nz         1 OCZ      -0.685400
      2 OAP          1.9550     1.0410    -0.1430 o          1 OCZ      -0.376100
      3 CAO          1.3480     0.0000     0.0000 c          1 OCZ       0.478100
      4 NAG          4.2480     0.0000     0.7580 na         1 OCZ      -0.160400
      5 CAJ          4.1070    -3.0160    -1.3270 c3         1 OCZ      -0.377200
      6 CAD          6.6960     0.6820     0.8720 ca         1 OCZ      -0.147000
      7 CAC          7.9570     0.3330     0.4430 ca         1 OCZ      -0.064000
      8 CAE          5.5990    -0.0870     0.4980 ca         1 OCZ      -0.002200
      9 CAF          5.7940    -1.2160    -0.3210 ca         1 OCZ      -0.081800
     10 CAA          7.0820    -1.5520    -0.7440 ca         1 OCZ      -0.045000
     11 CAH          4.4700    -1.7920    -0.5270 cc         1 OCZ      -0.061400
     12 CAI          3.5880    -1.0240     0.1410 cd         1 OCZ      -0.252300
     13 CAB          8.1450    -0.7830    -0.3640 ca         1 OCZ       0.002400
     14 CAM          2.6970    -3.4590    -0.9250 c3         1 OCZ      -0.073400
     15 CAK          2.1010    -1.2930     0.1780 c3         1 OCZ      -0.088500
     16 CAL          1.7520    -2.2540    -0.9650 c3         1 OCZ      -0.157400
     17 HAL1         0.7370    -2.6090    -0.8330 hc         1 OCZ       0.079700
     18 HAL2         1.8620    -1.7520    -1.9190 hc         1 OCZ       0.079700
     19 HAM1         2.7100    -3.9040     0.0620 hc         1 OCZ       0.090700
     20 HAM2         2.3510    -4.1820    -1.6540 hc         1 OCZ       0.090700
     21 HAK          1.8480    -1.7340     1.1350 hc         1 OCZ       0.104700
     22 HAJ1         3.3930    -2.4030    -0.7910 hc         1 OCZ       0.254700
     23 HAJ2         4.6770    -3.7650    -0.7910 hc         1 OCZ       0.254700
     24 HAA          7.2380    -2.4230    -1.3700 ha         1 OCZ       0.167000
     25 HAC1         8.7950     0.9840     0.6600 ha         1 OCZ       0.162000
     26 HAD          6.5570     1.5490     1.5070 ha         1 OCZ       0.144000
     27 HAG          3.8180     0.7090     1.3190 hn         1 OCZ       0.298700
     28 HAQ1        -0.3240     0.9240    -0.2070 hn         1 OCZ       0.480133
     29 HAQ2        -0.3340    -0.2890     0.8980 hn         1 OCZ       0.480133
     30 HAQ3        -0.3340    -0.6450    -0.6880 hn         1 OCZ       0.480133
     31 Cl           9.7450    -1.2020    -0.8920 cl         1 OCZ      -0.076400
@<TRIPOS>BOND
     1    16    14 1
     2    16    15 1
     3    14     5 1
     4     5    11 1
     5    11     9 1
     6    11    12 2
     7     9    10 ar
     8     9     8 ar
     9    10    13 ar
    10    13    31 1
    11    13     7 ar
    12     7     6 ar
    13     6     8 ar
    14     8     4 1
    15     4    12 1
    16    12    15 1
    17    15     3 1
    18     3     2 2
    19     3     1 1
    20    16    17 1
    21    16    18 1
    22    14    19 1
    23    14    20 1
    24    15    21 1
    25     5    22 1
    26     5    23 1
    27    10    24 1
    28     7    25 1
    29     6    26 1
    30     4    27 1
    31     1    28 1
    32     1    29 1
    33    30     1 1
@<TRIPOS>SUBSTRUCTURE
     1 OCZ         1 TEMP              0 ****  ****    0 ROOT
