@<TRIPOS>MOLECULE
ODD
   51    50     1     0     0
SMALL
bcc


@<TRIPOS>ATOM
      1 O2          2.2380   -0.6960    0.5650 o         1 ODD     -0.853300
      2 C1          3.0000    0.2470    0.2030 c         1 ODD      0.907600
      3 O1          3.9920    0.6480    0.8770 o         1 ODD     -0.853300
      4 C2          2.6960    0.9690   -1.1220 c3        1 ODD     -0.194400
      5 C3          2.4050   -0.0140   -2.2290 c3        1 ODD     -0.065400
      6 C4          1.9250    0.6780   -3.4880 c3        1 ODD     -0.078400
      7 C5          1.6530   -0.3160   -4.5970 c3        1 ODD     -0.078400
      8 C6          1.1640    0.3740   -5.8530 c3        1 ODD     -0.078400
      9 C7          0.8930   -0.6220   -6.9600 c3        1 ODD     -0.079400
     10 C8          0.4050    0.0680   -8.2150 c3        1 ODD     -0.078400
     11 C9          0.1340   -0.9320   -9.3210 c3        1 ODD     -0.057200
     12 C10        -0.3450   -0.2800  -10.5620 c2        1 ODD     -0.137200
     13 C11        -0.6610   -0.9220  -11.6960 ce        1 ODD     -0.162000
     14 C12        -0.5810   -2.3550  -11.8800 ce        1 ODD     -0.132000
     15 C13        -0.8980   -3.0000  -13.0120 c2        1 ODD     -0.168200
     16 C14        -1.3790   -2.3460  -14.2510 c3        1 ODD     -0.049200
     17 C15        -1.6550   -3.3480  -15.3550 c3        1 ODD     -0.077400
     18 C16        -2.1450   -2.6570  -16.6090 c3        1 ODD     -0.079400
     19 C17        -2.4220   -3.6540  -17.7150 c3        1 ODD     -0.080400
     20 C18        -2.9110   -2.9710  -18.9660 c3        1 ODD     -0.092100
     21 H21         1.8090    1.6310   -0.9550 hc        1 ODD      0.018700
     22 H22         3.5640    1.6200   -1.3970 hc        1 ODD      0.018700
     23 H31         3.3310   -0.6050   -2.4570 hc        1 ODD      0.044200
     24 H32         1.6300   -0.7420   -1.8680 hc        1 ODD      0.044200
     25 H41         0.9900    1.2550   -3.2640 hc        1 ODD      0.025700
     26 H42         2.6960    1.4180   -3.8280 hc        1 ODD      0.025700
     27 H51         2.5890   -0.8900   -4.8230 hc        1 ODD      0.036700
     28 H52         0.8860   -1.0590   -4.2520 hc        1 ODD      0.036700
     29 H61         0.2270    0.9470   -5.6250 hc        1 ODD      0.034700
     30 H62         1.9310    1.1170   -6.1950 hc        1 ODD      0.034700
     31 H71         1.8300   -1.1960   -7.1860 hc        1 ODD      0.038200
     32 H72         0.1260   -1.3650   -6.6160 hc        1 ODD      0.038200
     33 H81         1.1720    0.8110   -8.5580 hc        1 ODD      0.039200
     34 H82        -0.5330    0.6420   -7.9880 hc        1 ODD      0.039200
     35 H91         1.0740   -1.5090   -9.5380 hc        1 ODD      0.051700
     36 H92        -0.6300   -1.6780   -8.9690 hc        1 ODD      0.051700
     37 H10        -0.4380    0.8190  -10.5160 ha        1 ODD      0.121000
     38 H11        -1.0100   -0.3430  -12.5700 ha        1 ODD      0.117000
     39 H12        -0.2300   -2.9330  -11.0060 ha        1 ODD      0.124000
     40 H13        -0.8050   -4.0980  -13.0570 ha        1 ODD      0.119000
     41 H141       -2.3180   -1.7670  -14.0320 hc        1 ODD      0.048700
     42 H142       -0.6150   -1.6020  -14.6060 hc        1 ODD      0.048700
     43 H151       -2.4230   -4.0880  -15.0080 hc        1 ODD      0.040700
     44 H152       -0.7190   -3.9230  -15.5830 hc        1 ODD      0.040700
     45 H161       -3.0810   -2.0810  -16.3810 hc        1 ODD      0.039700
     46 H162       -1.3780   -1.9160  -16.9560 hc        1 ODD      0.039700
     47 H171       -1.4860   -4.2300  -17.9410 hc        1 ODD      0.038200
     48 H172       -3.1880   -4.3950  -17.3660 hc        1 ODD      0.038200
     49 H181       -3.1080   -3.7240  -19.7670 hc        1 ODD      0.031033
     50 H182       -2.1500   -2.2460  -19.3430 hc        1 ODD      0.031033
     51 H183       -3.8570   -2.4120  -18.7660 hc        1 ODD      0.031033
@<TRIPOS>BOND
     1    1    2 1
     2    2    3 1
     3    2    4 1
     4    4    5 1
     5    4   21 1
     6    4   22 1
     7    5    6 1
     8    5   23 1
     9    5   24 1
    10    6    7 1
    11    6   25 1
    12    6   26 1
    13    7    8 1
    14    7   27 1
    15    7   28 1
    16    8    9 1
    17    8   29 1
    18    8   30 1
    19    9   10 1
    20    9   31 1
    21    9   32 1
    22   10   11 1
    23   10   33 1
    24   10   34 1
    25   11   12 1
    26   11   35 1
    27   11   36 1
    28   12   13 2
    29   12   37 1
    30   13   14 1
    31   13   38 1
    32   14   15 2
    33   14   39 1
    34   15   16 1
    35   15   40 1
    36   16   17 1
    37   16   41 1
    38   16   42 1
    39   17   18 1
    40   17   43 1
    41   17   44 1
    42   18   19 1
    43   18   45 1
    44   18   46 1
    45   19   20 1
    46   19   47 1
    47   19   48 1
    48   20   49 1
    49   20   50 1
    50   20   51 1
@<TRIPOS>SUBSTRUCTURE
     1 ODD         1 TEMP              0 ****  ****    0 ROOT
