@<TRIPOS>MOLECULE
ODE
   55    58     1     0     0
SMALL
bcc


@<TRIPOS>ATOM
      1 CAI         0.3790   -0.1100    0.1940 ca        1 ODE     -0.071500
      2 CAN         1.7340   -0.1350    0.5130 ca        1 ODE     -0.191500
      3 CAV         2.1250   -0.1350    1.8590 ca        1 ODE      0.131600
      4 OAZ         3.4430   -0.1640    2.2500 oh        1 ODE     -0.496600
      5 CAO         1.1670   -0.1030    2.8870 ca        1 ODE     -0.191500
      6 CAL        -0.1810   -0.0750    2.5520 ca        1 ODE     -0.071500
      7 CAF        -0.5890   -0.0860    1.2080 ca        1 ODE     -0.081800
      8 CAA        -2.0000   -0.0550    0.8970 ce        1 ODE     -0.059900
      9 CAC        -2.8760    1.1590    1.2370 c3        1 ODE      0.170800
     10 OBC        -4.1230    0.4840    1.6170 os        1 ODE     -0.407600
     11 CAD        -3.3600    1.8470   -0.0820 c3        1 ODE     -0.131200
     12 CAR        -2.2970    2.3330   -1.0140 c         1 ODE      0.652100
     13 OBD        -1.1350    1.9630   -1.1730 o         1 ODE     -0.524500
     14 OBA        -2.7400    3.4010   -1.7500 os        1 ODE     -0.446900
     15 CAJ        -1.8590    3.8670   -2.7890 c3        1 ODE      0.138400
     16 CAU        -2.5650    5.0220   -3.4560 c3        1 ODE     -0.100600
     17 CAK        -4.3190    0.7710   -0.6680 c3        1 ODE     -0.131200
     18 CAQ        -4.0400    0.3200   -2.0630 c         1 ODE      0.652100
     19 OAY        -3.1790    0.7020   -2.8560 o         1 ODE     -0.524500
     20 OBB        -4.9460   -0.6130   -2.4940 os        1 ODE     -0.446900
     21 CAS        -4.7850   -1.0900   -3.8440 c3        1 ODE      0.138400
     22 CAG        -5.7310   -2.2570   -3.9920 c3        1 ODE     -0.100600
     23 CAE        -4.2440   -0.3510    0.4200 c3        1 ODE      0.170800
     24 CAB        -2.8480   -0.9950    0.3810 cf        1 ODE     -0.059900
     25 CAH        -2.6310   -2.3530   -0.0450 ca        1 ODE     -0.081800
     26 CAM        -3.5830   -3.0120   -0.8400 ca        1 ODE     -0.071500
     27 CAW        -3.3970   -4.3330   -1.2310 ca        1 ODE     -0.191500
     28 CAT        -2.2430   -5.0160   -0.8210 ca        1 ODE      0.131600
     29 OBE        -1.9910   -6.3240   -1.1640 oh        1 ODE     -0.496600
     30 CAX        -1.2770   -4.3760   -0.0280 ca        1 ODE     -0.191500
     31 CAP        -1.4780   -3.0550    0.3500 ca        1 ODE     -0.071500
     32 HAI         0.0620   -0.0770   -0.8610 ha        1 ODE      0.150000
     33 HAN         2.4890   -0.1470   -0.2850 ha        1 ODE      0.143250
     34 HOAZ        3.9910   -0.1630    1.4520 ho        1 ODE      0.419500
     35 HAO         1.4950   -0.1000    3.9360 ha        1 ODE      0.143250
     36 HAL        -0.9390   -0.0480    3.3500 ha        1 ODE      0.150000
     37 HAC        -2.5390    1.8260    2.0500 h1        1 ODE      0.115700
     38 HAD        -3.9790    2.7400    0.2150 hc        1 ODE      0.102200
     39 HAJ1       -0.8880    4.1810   -2.3230 h1        1 ODE      0.056700
     40 HAJ2       -1.6740    3.0170   -3.4980 h1        1 ODE      0.056700
     41 HAU1       -1.9190    5.4180   -4.2750 hc        1 ODE      0.047033
     42 HAU2       -3.5390    4.6890   -3.8870 hc        1 ODE      0.047033
     43 HAU3       -2.7660    5.8380   -2.7210 hc        1 ODE      0.047033
     44 HAK        -5.3670    1.1840   -0.6660 hc        1 ODE      0.102200
     45 HAS1       -3.7170   -1.3940   -4.0030 h1        1 ODE      0.056700
     46 HAS2       -5.0370   -0.2500   -4.5420 h1        1 ODE      0.056700
     47 HAG1       -5.4550   -3.0750   -3.2840 hc        1 ODE      0.047033
     48 HAG2       -5.6710   -2.6420   -5.0380 hc        1 ODE      0.047033
     49 HAG3       -6.7800   -1.9430   -3.7770 hc        1 ODE      0.047033
     50 HAE        -5.1210   -1.0160    0.5040 h1        1 ODE      0.115700
     51 HAM        -4.4840   -2.4720   -1.1770 ha        1 ODE      0.150000
     52 HAW        -4.1480   -4.8360   -1.8560 ha        1 ODE      0.143250
     53 HOBE       -2.7330   -6.6400   -1.7000 ho        1 ODE      0.419500
     54 HAX        -0.3770   -4.9260    0.2830 ha        1 ODE      0.143250
     55 HAP        -0.7220   -2.5460    0.9720 ha        1 ODE      0.150000
@<TRIPOS>BOND
     1    1    2 ar  
     2    1    7 ar  
     3    1   32 1   
     4    2    3 ar  
     5    2   33 1   
     6    3    4 1   
     7    3    5 ar  
     8    4   34 1   
     9    5    6 ar  
    10    5   35 1   
    11    6    7 ar  
    12    6   36 1   
    13    7    8 1   
    14    8    9 1   
    15    8   24 2   
    16    9   10 1   
    17    9   11 1   
    18    9   37 1   
    19   10   23 1   
    20   11   12 1   
    21   11   17 1   
    22   11   38 1   
    23   12   13 2   
    24   12   14 1   
    25   14   15 1   
    26   15   16 1   
    27   15   39 1   
    28   15   40 1   
    29   16   41 1   
    30   16   42 1   
    31   16   43 1   
    32   17   18 1   
    33   17   23 1   
    34   17   44 1   
    35   18   19 2   
    36   18   20 1   
    37   20   21 1   
    38   21   22 1   
    39   21   45 1   
    40   21   46 1   
    41   22   47 1   
    42   22   48 1   
    43   22   49 1   
    44   23   24 1   
    45   23   50 1   
    46   24   25 1   
    47   25   26 ar  
    48   25   31 ar  
    49   26   27 ar  
    50   26   51 1   
    51   27   28 ar  
    52   27   52 1   
    53   28   29 1   
    54   28   30 ar  
    55   29   53 1   
    56   30   31 ar  
    57   30   54 1   
    58   31   55 1   
@<TRIPOS>SUBSTRUCTURE
     1 ODE         1 TEMP              0 ****  ****    0 ROOT
