@<TRIPOS>MOLECULE
molecule
   55    58     1     0     0
SMALL
bcc


@<TRIPOS>ATOM
      1 CAI          0.0000     0.0000     0.0000 ca         1 ODE      -0.088250
      2 CAN          1.3780     0.0000     0.0000 ca         1 ODE      -0.159250
      3 CAV          2.0750     0.0000     1.2020 ca         1 ODE       0.106100
      4 OAZ          3.4330    -0.0000     1.1960 oh         1 ODE      -0.524100
      5 CAO          1.3870    -0.0000     2.4080 ca         1 ODE      -0.159250
      6 CAL          0.0090     0.0000     2.4190 ca         1 ODE      -0.088250
      7 CAF         -0.6970     0.0000     1.2120 ca         1 ODE      -0.032800
      8 CAA         -2.1700     0.0010     1.2170 ce         1 ODE      -0.074900
      9 CAC         -3.0890     1.1100     1.7380 c3         1 ODE       0.181300
     10 OBC         -4.2270     0.3170     2.2170 os         1 ODE      -0.389600
     11 CAD         -3.6990     1.7660     0.4590 c3         1 ODE      -0.135200
     12 CAR         -2.6250     2.0810    -0.5490 c          1 ODE       0.645600
     13 OBD         -1.4620     2.0300    -0.2280 o          1 ODE      -0.534000
     14 OBA         -2.9610     2.4190    -1.8040 os         1 ODE      -0.429400
     15 CAJ         -1.8730     2.7100    -2.7210 c3         1 ODE       0.146900
     16 CAU         -2.4470     3.0710    -4.0930 c3         1 ODE      -0.097100
     17 CAK         -4.6370     0.6440    -0.0620 c3         1 ODE      -0.135200
     18 CAQ         -4.2120     0.1800    -1.4320 c          1 ODE       0.645600
     19 OAY         -3.0510    -0.0690    -1.6520 o          1 ODE      -0.534000
     20 OBB         -5.1250     0.0460    -2.4070 os         1 ODE      -0.429400
     21 CAS         -4.6440    -0.4030    -3.7020 c3         1 ODE       0.146900
     22 CAG         -5.8310    -0.5860    -4.6500 c3         1 ODE      -0.097100
     23 CAE         -4.4170    -0.4790     1.0000 c3         1 ODE       0.181300
     24 CAB         -2.9890    -0.9770     0.7570 cf         1 ODE      -0.074900
     25 CAH         -2.5870    -2.2580     0.1500 ca         1 ODE      -0.032800
     26 CAM         -3.1040    -2.6390    -1.0910 ca         1 ODE      -0.088250
     27 CAW         -2.7250    -3.8370    -1.6550 ca         1 ODE      -0.159250
     28 CAT         -1.8300    -4.6670    -0.9910 ca         1 ODE       0.106100
     29 OBE         -1.4590    -5.8480    -1.5510 oh         1 ODE      -0.524100
     30 CAX         -1.3130    -4.2930     0.2430 ca         1 ODE      -0.159250
     31 CAP         -1.6820    -3.0940     0.8120 ca         1 ODE      -0.088250
     32 HAI         -0.5420     0.0000    -0.9380 ha         1 ODE       0.141250
     33 HAN          1.9180    -0.0000    -0.9390 ha         1 ODE       0.138250
     34 HOAZ         3.7480    -0.8880     1.2290 ho         1 ODE       0.417000
     35 HAO          1.9350    -0.0000     3.3420 ha         1 ODE       0.138250
     36 HAL         -0.5260     0.0000     3.3610 ha         1 ODE       0.141250
     37 HAC         -2.6530     1.7900     2.4600 h1         1 ODE       0.119200
     38 HAD         -4.2650     2.6540     0.7140 hc         1 ODE       0.097200
     39 HAJ1        -1.2360     1.8380    -2.8140 h1         1 ODE       0.051200
     40 HAJ2        -1.2930     3.5420    -2.3410 h1         1 ODE       0.051200
     41 HAU1        -2.3720     2.2150    -4.7520 hc         1 ODE       0.047867
     42 HAU2        -3.4870     3.3550    -3.9860 hc         1 ODE       0.047867
     43 HAU3        -1.8880     3.8990    -4.5110 hc         1 ODE       0.047867
     44 HAK         -5.6680     0.9740    -0.0660 hc         1 ODE       0.097200
     45 HAS1        -3.9660     0.3360    -4.1110 h1         1 ODE       0.051200
     46 HAS2        -4.1250    -1.3460    -3.5870 h1         1 ODE       0.051200
     47 HAG1        -6.3400     0.3610    -4.7780 hc         1 ODE       0.047867
     48 HAG2        -5.4740    -0.9370    -5.6110 hc         1 ODE       0.047867
     49 HAG3        -6.5180    -1.3120    -4.2320 hc         1 ODE       0.047867
     50 HAE         -5.1840    -1.2410     1.0530 h1         1 ODE       0.119200
     51 HAM         -3.8020    -1.9930    -1.6100 ha         1 ODE       0.141250
     52 HAW         -3.1250    -4.1330    -2.6170 ha         1 ODE       0.138250
     53 HOBE        -0.6880    -5.7180    -2.0770 ho         1 ODE       0.417000
     54 HAX         -0.6140    -4.9430     0.7550 ha         1 ODE       0.138250
     55 HAP         -1.2790    -2.8030     1.7740 ha         1 ODE       0.141250
@<TRIPOS>BOND
     1     1     7 ar
     2     1     2 ar
     3     1    32 1
     4     2     3 ar
     5     2    33 1
     6     3     5 ar
     7     3     4 1
     8     4    34 1
     9     5     6 ar
    10     5    35 1
    11     6     7 ar
    12     6    36 1
    13     7     8 1
    14     8     9 1
    15     8    24 2
    16     9    10 1
    17     9    11 1
    18     9    37 1
    19    10    23 1
    20    11    17 1
    21    11    12 1
    22    11    38 1
    23    12    14 1
    24    12    13 2
    25    14    15 1
    26    15    16 1
    27    15    39 1
    28    15    40 1
    29    16    41 1
    30    16    42 1
    31    16    43 1
    32    17    18 1
    33    17    23 1
    34    17    44 1
    35    18    20 1
    36    18    19 2
    37    20    21 1
    38    21    22 1
    39    21    45 1
    40    21    46 1
    41    22    47 1
    42    22    48 1
    43    22    49 1
    44    23    24 1
    45    23    50 1
    46    24    25 1
    47    25    31 ar
    48    25    26 ar
    49    26    27 ar
    50    26    51 1
    51    27    28 ar
    52    27    52 1
    53    28    30 ar
    54    28    29 1
    55    29    53 1
    56    30    31 ar
    57    30    54 1
    58    31    55 1
@<TRIPOS>SUBSTRUCTURE
     1 ODE         1 TEMP              0 ****  ****    0 ROOT
