@<TRIPOS>MOLECULE
ODH
   31    33     1     0     0
SMALL
bcc


@<TRIPOS>ATOM
      1 C           0.3350    0.5560    1.2520 c1        1 ODH     -0.016000
      2 N           5.0040    1.4630    0.4780 n2        1 ODH     -0.071000
      3 O          -4.8260   -0.1320    1.8310 os        1 ODH     -0.118000
      4 C1          1.6780    0.1430    1.4480 ca        1 ODH     -0.197000
      5 N1          5.7340   -0.9010    1.9230 n2        1 ODH     -0.100000
      6 O1         -0.6310   -0.2210    1.7810 os        1 ODH     -0.094000
      7 C2          2.6590    0.9680    0.8900 ca        1 ODH      0.092000
      8 N2         -1.8940    0.3290    1.5130 n4        1 ODH      0.049000
      9 C3          4.0330    0.6360    1.0370 ca        1 ODH     -0.106000
     10 C4          6.2580    1.1030    0.6480 c2        1 ODH     -0.094000
     11 C5          6.6290   -0.0980    1.3820 c2        1 ODH     -0.047000
     12 C6          4.3990   -0.5520    1.7630 ca        1 ODH      0.034000
     13 C7          3.3700   -1.3740    2.3220 ca        1 ODH     -0.098000
     14 C8          2.0550   -1.0320    2.1660 ca        1 ODH     -0.085000
     15 C9         -2.7190   -0.6770    0.7450 c3        1 ODH     -0.027000
     16 C10        -4.1000   -0.2030    0.6250 c2        1 ODH     -0.197000
     17 C11        -6.1170    0.2520    1.4840 c2        1 ODH     -0.016000
     18 C12        -6.2200    0.4190    0.1140 c2        1 ODH     -0.202000
     19 C13        -4.9190    0.1300   -0.4400 c2        1 ODH     -0.069000
     20 H2          2.3700    1.8800    0.3350 ha        1 ODH      0.182000
     21 HN2        -2.3340    0.5140    2.4290 hn        1 ODH      0.267000
     22 H4          7.0420    1.7490    0.2100 h4        1 ODH      0.196000
     23 H5          7.6960   -0.3660    1.5040 h4        1 ODH      0.197000
     24 H7          3.6590   -2.2830    2.8790 ha        1 ODH      0.179000
     25 H8          1.2630   -1.6650    2.5980 ha        1 ODH      0.149000
     26 H9         -2.2510   -0.8120   -0.2720 hx        1 ODH      0.164500
     27 H9A        -2.6660   -1.6520    1.3140 hx        1 ODH      0.164500
     28 H11        -6.8000    0.3520    2.3280 h4        1 ODH      0.218000
     29 H12        -7.1020    0.7080   -0.4550 ha        1 ODH      0.194000
     30 H13        -4.6570    0.1640   -1.4970 ha        1 ODH      0.184000
     31 H22        -1.7870    1.2170    0.9790 hn        1 ODH      0.267000
@<TRIPOS>BOND
     1    1    4 1   
     2    1    6 1   
     3    2    9 1   
     4    2   10 1   
     5    3   16 1   
     6    3   17 1   
     7    4    7 1   
     8    4   14 1   
     9    5   11 1   
    10    5   12 1   
    11    6    8 1   
    12    7    9 1   
    13    7   20 1   
    14    8   15 1   
    15    8   21 1   
    16    8   31 1   
    17    9   12 1   
    18   10   11 1   
    19   10   22 1   
    20   11   23 1   
    21   12   13 1   
    22   13   14 1   
    23   13   24 1   
    24   14   25 1   
    25   15   16 1   
    26   15   26 1   
    27   15   27 1   
    28   16   19 1   
    29   17   18 1   
    30   17   28 1   
    31   18   19 1   
    32   18   29 1   
    33   19   30 1   
@<TRIPOS>SUBSTRUCTURE
     1 ODH         1 TEMP              0 ****  ****    0 ROOT
