@<TRIPOS>MOLECULE
ODI
   28    27     1     0     0
SMALL
bcc


@<TRIPOS>ATOM
      1 OAA         0.0220    0.0000    0.0630 oh        1 ODI     -0.601800
      2 CAC         1.4400    0.0000   -0.0020 c3        1 ODI      0.131400
      3 CAE         1.9520   -0.0000    1.4280 c3        1 ODI     -0.084400
      4 CAG         3.4640    0.0000    1.4520 c3        1 ODI     -0.078400
      5 CAI         3.9870   -0.0000    2.8720 c3        1 ODI     -0.078400
      6 CAJ         5.5000   -0.0000    2.9000 c3        1 ODI     -0.078400
      7 CAH         6.0230    0.0000    4.3200 c3        1 ODI     -0.078400
      8 CAF         7.5350    0.0000    4.3440 c3        1 ODI     -0.084400
      9 CAD         8.0470   -0.0000    5.7740 c3        1 ODI      0.131400
     10 OAB         9.4640   -0.0000    5.7090 oh        1 ODI     -0.601800
     11 HAA        -0.2950   -0.0000   -0.8470 ho        1 ODI      0.399000
     12 HAC1        1.7970    0.9130   -0.5500 h1        1 ODI      0.019700
     13 HAC2        1.7970   -0.9130   -0.5500 h1        1 ODI      0.019700
     14 HAE1        1.5550   -0.9020    1.9620 hc        1 ODI      0.055700
     15 HAE2        1.5550    0.9020    1.9620 hc        1 ODI      0.055700
     16 HAG1        3.8510    0.9030    0.9090 hc        1 ODI      0.039700
     17 HAG2        3.8510   -0.9030    0.9090 hc        1 ODI      0.039700
     18 HAI1        3.6000    0.9030    3.4150 hc        1 ODI      0.041700
     19 HAI2        3.6000   -0.9030    3.4150 hc        1 ODI      0.041700
     20 HAJ1        5.8870   -0.9030    2.3570 hc        1 ODI      0.041700
     21 HAJ2        5.8870    0.9030    2.3570 hc        1 ODI      0.041700
     22 HAH1        5.6360    0.9030    4.8630 hc        1 ODI      0.039700
     23 HAH2        5.6360   -0.9030    4.8630 hc        1 ODI      0.039700
     24 HAF1        7.9320    0.9020    3.8100 hc        1 ODI      0.055700
     25 HAF2        7.9320   -0.9020    3.8100 hc        1 ODI      0.055700
     26 HAD1        7.6890    0.9130    6.3220 h1        1 ODI      0.019700
     27 HAD2        7.6890   -0.9130    6.3220 h1        1 ODI      0.019700
     28 HAB         9.7810    0.0000    6.6190 ho        1 ODI      0.399000
@<TRIPOS>BOND
     1    1    2 1   
     2    1   11 1   
     3    2    3 1   
     4    2   12 1   
     5    2   13 1   
     6    3    4 1   
     7    3   14 1   
     8    3   15 1   
     9    4    5 1   
    10    4   16 1   
    11    4   17 1   
    12    5    6 1   
    13    5   18 1   
    14    5   19 1   
    15    6    7 1   
    16    6   20 1   
    17    6   21 1   
    18    7    8 1   
    19    7   22 1   
    20    7   23 1   
    21    8    9 1   
    22    8   24 1   
    23    8   25 1   
    24    9   10 1   
    25    9   26 1   
    26    9   27 1   
    27   10   28 1   
@<TRIPOS>SUBSTRUCTURE
     1 ODI         1 TEMP              0 ****  ****    0 ROOT
