@<TRIPOS>MOLECULE
molecule
   28    27     1     0     0
SMALL
bcc


@<TRIPOS>ATOM
      1 OAA          0.0000     0.0000     0.0000 oh         1 ODI      -0.612300
      2 CAC          1.4280     0.0000     0.0000 c3         1 ODI       0.139900
      3 CAE          1.9380     0.0000     1.4440 c3         1 ODI      -0.081400
      4 CAG          3.4690    -0.0000     1.4430 c3         1 ODI      -0.082400
      5 CAI          3.9780     0.0000     2.8860 c3         1 ODI      -0.080400
      6 CAJ          5.5090    -0.0000     2.8860 c3         1 ODI      -0.080400
      7 CAH          6.0180     0.0000     4.3290 c3         1 ODI      -0.082400
      8 CAF          7.5480    -0.0000     4.3290 c3         1 ODI      -0.081400
      9 CAD          8.0580    -0.0000     5.7720 c3         1 ODI       0.139900
     10 OAB          9.4870    -0.0000     5.7720 oh         1 ODI      -0.612300
     11 HAA         -0.3140    -0.0000    -0.8890 ho         1 ODI       0.401000
     12 HAC1         1.7900    -0.8850    -0.5110 h1         1 ODI       0.018700
     13 HAC2         1.7900     0.8850    -0.5110 h1         1 ODI       0.018700
     14 HAE1         1.5770     0.8850     1.9540 hc         1 ODI       0.053700
     15 HAE2         1.5770    -0.8850     1.9540 hc         1 ODI       0.053700
     16 HAG1         3.8300     0.8850     0.9330 hc         1 ODI       0.041700
     17 HAG2         3.8300    -0.8850     0.9330 hc         1 ODI       0.041700
     18 HAI1         3.6170    -0.8850     3.3970 hc         1 ODI       0.043700
     19 HAI2         3.6170     0.8850     3.3970 hc         1 ODI       0.043700
     20 HAJ1         5.8700     0.8850     2.3750 hc         1 ODI       0.043700
     21 HAJ2         5.8700    -0.8850     2.3750 hc         1 ODI       0.043700
     22 HAH1         5.6560     0.8850     4.8390 hc         1 ODI       0.041700
     23 HAH2         5.6560    -0.8850     4.8390 hc         1 ODI       0.041700
     24 HAF1         7.9090     0.8850     3.8180 hc         1 ODI       0.053700
     25 HAF2         7.9090    -0.8850     3.8180 hc         1 ODI       0.053700
     26 HAD1         7.6970    -0.8850     6.2830 h1         1 ODI       0.018700
     27 HAD2         7.6970     0.8850     6.2830 h1         1 ODI       0.018700
     28 HAB          9.8010    -0.0000     6.6610 ho         1 ODI       0.401000
@<TRIPOS>BOND
     1     1     2 1
     2     1    11 1
     3     2     3 1
     4     2    12 1
     5     2    13 1
     6     3     4 1
     7     3    14 1
     8     3    15 1
     9     4     5 1
    10     4    16 1
    11     4    17 1
    12     5     6 1
    13     5    18 1
    14     5    19 1
    15     6     7 1
    16     6    20 1
    17     6    21 1
    18     7     8 1
    19     7    22 1
    20     7    23 1
    21     8     9 1
    22     8    24 1
    23     8    25 1
    24     9    10 1
    25     9    26 1
    26     9    27 1
    27    10    28 1
@<TRIPOS>SUBSTRUCTURE
     1 ODI         1 TEMP              0 ****  ****    0 ROOT
