@<TRIPOS>MOLECULE
molecule
   20    21     1     0     0
SMALL
bcc


@<TRIPOS>ATOM
      1 C12          0.0000     0.0000     0.0000 ca         1 ODK      -0.242300
      2 C14          1.3840     0.0000     0.0000 ca         1 ODK      -0.105000
      3 C13          2.0470     0.0000     1.2200 ca         1 ODK      -0.287300
      4 C11          1.3120    -0.0010     2.3900 ca         1 ODK       0.418200
      5 N8          -0.0070    -0.0010     2.3620 nb         1 ODK      -0.684000
      6 C7          -0.6770    -0.0010     1.2180 ca         1 ODK       0.452300
      7 C4          -2.1600    -0.0010     1.2340 cc         1 ODK       0.204300
      8 C2          -2.9790    -0.0020     2.3790 cc         1 ODK      -0.263300
      9 C1          -4.2760    -0.0020     1.9000 cd         1 ODK      -0.144900
     10 C6          -5.5090    -0.0010     2.7000 c          1 ODK       0.904200
     11 O10         -5.4460    -0.0010     3.9140 o          1 ODK      -0.827800
     12 O9          -6.7100    -0.0020     2.0880 o          1 ODK      -0.827800
     13 N5          -4.1850    -0.0010     0.5360 na         1 ODK       0.055400
     14 N3          -2.9510     0.0050     0.1810 nd         1 ODK      -0.572800
     15 H12         -0.5490    -0.0000    -0.9340 ha         1 ODK       0.152000
     16 H14          1.9380     0.0010    -0.9310 ha         1 ODK       0.122000
     17 H13          3.1290    -0.0000     1.2540 ha         1 ODK       0.120000
     18 H11          1.8250    -0.0010     3.3440 h4         1 ODK       0.011100
     19 H2          -2.6700    -0.2720     3.3820 ha         1 ODK       0.174000
     20 HN5         -4.9640    -0.0000    -0.0920 hn         1 ODK       0.340700
@<TRIPOS>BOND
     1     1     6 ar
     2     1     2 ar
     3     1    15 1
     4     2     3 ar
     5     2    16 1
     6     3     4 ar
     7     3    17 1
     8     5     4 ar
     9     4    18 1
    10     6     5 ar
    11     7     6 1
    12    14     7 2
    13     7     8 1
    14     9     8 2
    15     8    19 1
    16    13     9 1
    17    10     9 1
    18    11    10 1
    19    10    12 1
    20    13    14 1
    21    13    20 1
@<TRIPOS>SUBSTRUCTURE
     1 ODK         1 TEMP              0 ****  ****    0 ROOT
