@<TRIPOS>MOLECULE
ODK
   20    21     1     0     0
SMALL
bcc


@<TRIPOS>ATOM
      1 C12         0.0030    0.0400   -0.0120 ca        1 ODK     -0.244300
      2 C14         1.3950    0.0440   -0.0320 ca        1 ODK     -0.103000
      3 C13         2.0940    0.0130    1.1750 ca        1 ODK     -0.283300
      4 C11         1.3450   -0.0210    2.3650 ca        1 ODK      0.394200
      5 N8          0.0040   -0.0250    2.4160 nb        1 ODK     -0.666000
      6 C7         -0.6760    0.0050    1.2340 ca        1 ODK      0.433300
      7 C4         -2.1340    0.0010    1.2710 cc        1 ODK      0.181300
      8 C2         -2.9650   -0.0370    2.4550 cc        1 ODK     -0.245300
      9 C1         -4.2870   -0.0260    1.9780 cd        1 ODK     -0.140900
     10 C6         -5.6370   -0.0510    2.6740 c         1 ODK      0.936200
     11 O10        -5.6450   -0.0880    3.9300 o         1 ODK     -0.816300
     12 O9         -6.6590   -0.0320    1.9300 o         1 ODK     -0.816300
     13 N5         -4.1790    0.0160    0.5800 na        1 ODK      0.019400
     14 N3         -2.9320    0.0320    0.1440 nd        1 ODK     -0.557800
     15 H12        -0.5680    0.0640   -0.9510 ha        1 ODK      0.155000
     16 H14         1.9360    0.0710   -0.9880 ha        1 ODK      0.120000
     17 H13         3.1890    0.0150    1.2030 ha        1 ODK      0.125000
     18 H11         1.8510   -0.0460    3.3460 h4        1 ODK      0.006100
     19 H2         -2.6380   -0.0670    3.4880 ha        1 ODK      0.175000
     20 HN5        -4.9540    0.0330   -0.0430 hn        1 ODK      0.326700
@<TRIPOS>BOND
     1    1    2 ar  
     2    1    6 ar  
     3    1   15 1   
     4    2    3 ar  
     5    2   16 1   
     6    3    4 ar  
     7    3   17 1   
     8    4    5 ar  
     9    4   18 1   
    10    5    6 ar  
    11    6    7 1   
    12    7    8 1   
    13    7   14 2   
    14    8    9 2   
    15    8   19 1   
    16    9   10 1   
    17    9   13 1   
    18   10   11 1   
    19   10   12 1   
    20   13   14 1   
    21   13   20 1   
@<TRIPOS>SUBSTRUCTURE
     1 ODK         1 TEMP              0 ****  ****    0 ROOT
