@<TRIPOS>MOLECULE
ODN
   56    60     1     0     0
SMALL
bcc


@<TRIPOS>ATOM
      1 O3          0.0040    0.3600    0.0160 o         1 ODN     -0.516100
      2 C17         1.2080    0.1270   -0.0240 c         1 ODN      0.603100
      3 C10         2.1800    0.1190    1.1560 c3        1 ODN     -0.198000
      4 C18         1.8650    1.0570    2.3270 c3        1 ODN      0.331600
      5 O4          1.7420    2.3860    1.8930 oh        1 ODN     -0.587800
      6 O1          3.0020    1.1100    3.1990 os        1 ODN     -0.461600
      7 C8          3.3620   -0.1940    3.6760 c3        1 ODN      0.147400
      8 C19         0.6510    0.6180    3.1930 c3        1 ODN      0.117100
      9 O5         -0.5820    0.5990    2.5070 oh        1 ODN     -0.590800
     10 C6          0.9100   -0.8000    3.7340 c3        1 ODN     -0.057700
     11 C3          0.5960   -0.9200    5.2340 c3        1 ODN     -0.040000
     12 C5         -0.9110   -0.7180    5.4050 c3        1 ODN     -0.092100
     13 C4          1.3210    0.0860    6.1220 c3        1 ODN     -0.092100
     14 C2          0.9280   -2.3450    5.6830 c3        1 ODN     -0.070400
     15 C1          2.3520   -2.7280    5.3690 c3        1 ODN     -0.114400
     16 C13         1.9970   -0.1680   -1.2890 c3        1 ODN     -0.161700
     17 C14         1.3510   -1.2170   -2.1520 c3        1 ODN     -0.079100
     18 C12         3.4260   -0.4620   -0.7980 c3        1 ODN     -0.058700
     19 C11         3.5360    0.4450    0.4540 c3        1 ODN      0.161100
     20 O2          3.6490    1.7790    0.0080 oh        1 ODN     -0.598800
     21 C15         3.6500   -1.8980   -0.3550 c3        1 ODN     -0.078400
     22 C16         3.4190   -2.1140    1.1310 c3        1 ODN     -0.078400
     23 C9          2.2630   -1.3210    1.7260 c3        1 ODN     -0.036700
     24 C7          2.3190   -1.2460    3.2800 c3        1 ODN     -0.063000
     25 C           2.6590   -2.6190    3.8780 c3        1 ODN      0.159100
     26 O           4.0500   -2.8570    3.6700 oh        1 ODN     -0.606800
     27 H1          1.8390    2.9540    2.6720 ho        1 ODN      0.429000
     28 H2          3.4560   -0.1070    4.7890 h1        1 ODN      0.063200
     29 H3          4.3650   -0.4430    3.2370 h1        1 ODN      0.063200
     30 H4          0.5590    1.3690    4.0320 h1        1 ODN      0.050700
     31 H5         -0.5480    1.2800    1.8190 ho        1 ODN      0.433000
     32 H6          0.1720   -1.4890    3.2200 hc        1 ODN      0.080700
     33 H7         -1.4780   -1.4730    4.8080 hc        1 ODN      0.040533
     34 H8         -1.1960   -0.8270    6.4780 hc        1 ODN      0.040533
     35 H9         -1.2050    0.2990    5.0480 hc        1 ODN      0.040533
     36 H10         2.1720   -0.3910    6.6670 hc        1 ODN      0.040533
     37 H11         1.7340    0.9410    5.5340 hc        1 ODN      0.040533
     38 H12         0.6250    0.5020    6.8910 hc        1 ODN      0.040533
     39 H13         0.2290   -3.0610    5.1730 hc        1 ODN      0.047200
     40 H14         0.7520   -2.4310    6.7870 hc        1 ODN      0.047200
     41 H15         2.5320   -3.7870    5.6950 hc        1 ODN      0.049200
     42 H16         3.0720   -2.0820    5.9370 hc        1 ODN      0.049200
     43 H17         2.0410    0.8030   -1.8660 hc        1 ODN      0.095700
     44 H18         0.4240   -0.8000   -2.6190 hc        1 ODN      0.043367
     45 H19         2.0510   -1.5350   -2.9620 hc        1 ODN      0.043367
     46 H20         1.0570   -2.1150   -1.5570 hc        1 ODN      0.043367
     47 H21         4.1690   -0.1660   -1.5790 hc        1 ODN      0.078700
     48 H22         4.4070    0.1990    1.1130 h1        1 ODN      0.060700
     49 H23         3.5420    2.3480    0.7830 ho        1 ODN      0.426000
     50 H24         4.7110   -2.1860   -0.5850 hc        1 ODN      0.047200
     51 H25         2.9970   -2.5910   -0.9460 hc        1 ODN      0.047200
     52 H26         4.3670   -1.8650    1.6830 hc        1 ODN      0.056700
     53 H27         3.2290   -3.2050    1.3140 hc        1 ODN      0.056700
     54 H28         1.3080   -1.8540    1.4480 hc        1 ODN      0.064700
     55 H29         2.0670   -3.4010    3.3200 h1        1 ODN      0.039700
     56 H30         4.2590   -3.6890    4.1120 ho        1 ODN      0.404000
@<TRIPOS>BOND
     1    1    2 2   
     2    2    3 1   
     3    2   16 1   
     4    3    4 1   
     5    3   19 1   
     6    3   23 1   
     7    4    5 1   
     8    4    6 1   
     9    4    8 1   
    10    5   27 1   
    11    6    7 1   
    12    7   24 1   
    13    7   28 1   
    14    7   29 1   
    15    8    9 1   
    16    8   10 1   
    17    8   30 1   
    18    9   31 1   
    19   10   11 1   
    20   10   24 1   
    21   10   32 1   
    22   11   12 1   
    23   11   13 1   
    24   11   14 1   
    25   12   33 1   
    26   12   34 1   
    27   12   35 1   
    28   13   36 1   
    29   13   37 1   
    30   13   38 1   
    31   14   15 1   
    32   14   39 1   
    33   14   40 1   
    34   15   25 1   
    35   15   41 1   
    36   15   42 1   
    37   16   17 1   
    38   16   18 1   
    39   16   43 1   
    40   17   44 1   
    41   17   45 1   
    42   17   46 1   
    43   18   19 1   
    44   18   21 1   
    45   18   47 1   
    46   19   20 1   
    47   19   48 1   
    48   20   49 1   
    49   21   22 1   
    50   21   50 1   
    51   21   51 1   
    52   22   23 1   
    53   22   52 1   
    54   22   53 1   
    55   23   24 1   
    56   23   54 1   
    57   24   25 1   
    58   25   26 1   
    59   25   55 1   
    60   26   56 1   
@<TRIPOS>SUBSTRUCTURE
     1 ODN         1 TEMP              0 ****  ****    0 ROOT
