@<TRIPOS>MOLECULE
molecule
   56    60     1     0     0
SMALL
bcc


@<TRIPOS>ATOM
      1 O3           0.0000     0.0000     0.0000 o          1 ODN      -0.473100
      2 C17          1.2060     0.0000     0.0000 c          1 ODN       0.612100
      3 C10          2.1310     0.0000     1.1890 c3         1 ODN      -0.162000
      4 C18          1.7740     0.9950     2.2730 c3         1 ODN       0.375600
      5 O4           1.4950     2.2740     1.7070 oh         1 ODN      -0.553800
      6 O1           2.9140     1.0840     3.1550 os         1 ODN      -0.448600
      7 C8           3.3270    -0.1980     3.6400 c3         1 ODN       0.155400
      8 C19          0.5900     0.5390     3.1330 c3         1 ODN       0.108100
      9 O5          -0.5960     0.4770     2.3380 oh         1 ODN      -0.566800
     10 C6           0.8870    -0.8380     3.7260 c3         1 ODN      -0.061700
     11 C3           0.5990    -0.9200     5.2090 c3         1 ODN      -0.059000
     12 C5          -0.9200    -0.7670     5.4280 c3         1 ODN      -0.088100
     13 C4           1.3000     0.1690     6.0180 c3         1 ODN      -0.088100
     14 C2           1.0000    -2.2960     5.7530 c3         1 ODN      -0.067400
     15 C1           2.4660    -2.5750     5.4460 c3         1 ODN      -0.118400
     16 C13          2.0970    -0.0090    -1.2360 c3         1 ODN      -0.174700
     17 C14          1.5290    -0.8900    -2.3360 c3         1 ODN      -0.077100
     18 C12          3.4700    -0.4980    -0.7180 c3         1 ODN      -0.101700
     19 C11          3.5420     0.3060     0.6210 c3         1 ODN       0.152100
     20 O2           3.7040     1.7020     0.3540 oh         1 ODN      -0.578800
     21 C15          3.3930    -1.9800    -0.3390 c3         1 ODN      -0.083400
     22 C16          3.4130    -2.1380     1.1900 c3         1 ODN      -0.075400
     23 C9           2.2050    -1.4200     1.7770 c3         1 ODN      -0.045700
     24 C7           2.2930    -1.2680     3.3080 c3         1 ODN      -0.073000
     25 C            2.6830    -2.5990     3.9330 c3         1 ODN       0.164100
     26 O            4.0690    -2.8650     3.6830 oh         1 ODN      -0.613800
     27 H1           1.5650     2.9350     2.3760 ho         1 ODN       0.411000
     28 H2           4.2730    -0.4620     3.1830 h1         1 ODN       0.057700
     29 H3           3.4540    -0.1470     4.7150 h1         1 ODN       0.057700
     30 H4           0.4420     1.2490     3.9380 h1         1 ODN       0.047700
     31 H5          -1.2100     1.1260     2.6380 ho         1 ODN       0.400000
     32 H6           0.2030    -1.5300     3.2480 hc         1 ODN       0.076700
     33 H7          -1.4520    -1.3810     4.7110 hc         1 ODN       0.038700
     34 H8          -1.2020     0.2710     5.2930 hc         1 ODN       0.038700
     35 H9          -1.1740    -1.0820     6.4320 hc         1 ODN       0.038700
     36 H10          2.3500    -0.0780     6.1230 hc         1 ODN       0.038700
     37 H11          1.2030     1.1190     5.5060 hc         1 ODN       0.038700
     38 H12          0.8450     0.2400     6.9980 hc         1 ODN       0.038700
     39 H13          0.8500    -2.3130     6.8260 hc         1 ODN       0.046700
     40 H14          0.3860    -3.0570     5.2870 hc         1 ODN       0.046700
     41 H15          2.7430    -3.5360     5.8630 hc         1 ODN       0.051200
     42 H16          3.0790    -1.7970     5.8840 hc         1 ODN       0.051200
     43 H17          2.1980     1.0040    -1.6090 hc         1 ODN       0.092700
     44 H18          2.3390    -1.2710    -2.9480 hc         1 ODN       0.039033
     45 H19          0.8530    -0.3090    -2.9520 hc         1 ODN       0.039033
     46 H20          0.9910    -1.7200    -1.8930 hc         1 ODN       0.039033
     47 H21          4.2860    -0.2680    -1.3930 hc         1 ODN       0.067700
     48 H22          4.3220    -0.0730     1.2700 h1         1 ODN       0.060700
     49 H23          4.6130     1.8860     0.1840 ho         1 ODN       0.397000
     50 H24          2.4770    -2.4030    -0.7320 hc         1 ODN       0.048200
     51 H25          4.2410    -2.5040    -0.7640 hc         1 ODN       0.048200
     52 H26          4.3220    -1.7050     1.5890 hc         1 ODN       0.057200
     53 H27          3.3690    -3.1900     1.4470 hc         1 ODN       0.057200
     54 H28          1.3030    -1.9630     1.5210 hc         1 ODN       0.072700
     55 H29          2.0790    -3.3870     3.4990 h1         1 ODN       0.040700
     56 H30          4.2880    -3.7220     4.0070 ho         1 ODN       0.405000
@<TRIPOS>BOND
     1    17    16 1
     2    16    18 1
     3    16     2 1
     4    20    19 1
     5    18    19 1
     6    18    21 1
     7    19     3 1
     8    21    22 1
     9     2     1 2
    10     2     3 1
    11     5     4 1
    12     3     4 1
    13     3    23 1
    14    22    23 1
    15     4     6 1
    16     4     8 1
    17     6     7 1
    18    23    24 1
    19     9     8 1
    20     7    24 1
    21     8    10 1
    22    24    10 1
    23    24    25 1
    24    10    11 1
    25    26    25 1
    26    25    15 1
    27    11    13 1
    28    11    12 1
    29    11    14 1
    30    15    14 1
    31     5    27 1
    32     7    28 1
    33     7    29 1
    34     8    30 1
    35     9    31 1
    36    10    32 1
    37    12    33 1
    38    12    34 1
    39    12    35 1
    40    13    36 1
    41    13    37 1
    42    13    38 1
    43    14    39 1
    44    14    40 1
    45    15    41 1
    46    15    42 1
    47    16    43 1
    48    17    44 1
    49    17    45 1
    50    17    46 1
    51    18    47 1
    52    19    48 1
    53    20    49 1
    54    21    50 1
    55    21    51 1
    56    22    52 1
    57    22    53 1
    58    23    54 1
    59    25    55 1
    60    26    56 1
@<TRIPOS>SUBSTRUCTURE
     1 ODN         1 TEMP              0 ****  ****    0 ROOT
