@<TRIPOS>MOLECULE
ODO
   21    21     1     0     0
SMALL
bcc


@<TRIPOS>ATOM
      1 O11          0.0000     0.0000     0.0000 oh         1 ODO      -0.378500
      2 C8           1.3090     0.0020     2.4260 c3         1 ODO      -0.056400
      3 C7           2.0630     0.0000     1.1210 ce         1 ODO       0.408900
      4 C2           3.5360     0.0000     1.1220 ca         1 ODO      -0.182900
      5 C3           4.2410    -0.0000    -0.0910 ca         1 ODO       0.197100
      6 C4           5.6250     0.0000    -0.0820 ca         1 ODO      -0.239000
      7 C5           6.3110     0.0020     1.1230 ca         1 ODO       0.171100
      8 O12          7.6690     0.0030     1.1270 oh         1 ODO      -0.503100
      9 C6           5.6150     0.0030     2.3260 ca         1 ODO      -0.177000
     10 C1           4.2380     0.0070     2.3300 ca         1 ODO      -0.038000
     11 N            1.4160     0.0000     0.0000 n2         1 ODO      -0.382200
     12 H11         -0.3140     0.0100    -0.8890 ho         1 ODO       0.416000
     13 H81C         1.5760    -0.8790     2.9980 hc         1 ODO       0.020367
     14 H82C         0.2440    -0.0050     2.2280 hc         1 ODO       0.020367
     15 H83C         1.5670     0.8900     2.9910 hc         1 ODO       0.020367
     16 H1           3.6990     0.0070     3.2700 ha         1 ODO       0.111000
     17 H10          4.0140    -0.5560    -1.8880 ho         1 ODO       0.397000
     18 H4           6.1720     0.0000    -1.0170 ha         1 ODO       0.123000
     19 H12          7.9830     0.8910     1.1050 ho         1 ODO       0.406000
     20 H6           6.1570     0.0060     3.2640 ha         1 ODO       0.117000
     21 O10          3.5660    -0.0010    -1.2700 oh         1 ODO      -0.452100
@<TRIPOS>BOND
     1     1    11 1   
     2     1    12 1   
     3     2     3 1   
     4     2    13 1   
     5     2    14 1   
     6     2    15 1   
     7     3     4 1   
     8     3    11 2   
     9     4     5 ar  
    10     4    10 ar  
    11     5     6 ar  
    12     5    21 1   
    13     6     7 ar  
    14     6    18 1   
    15     7     8 1   
    16     7     9 ar  
    17     8    19 1   
    18     9    10 ar  
    19     9    20 1   
    20    10    16 1   
    21    17    21 1   
@<TRIPOS>SUBSTRUCTURE
     1 ODO         1 TEMP              0 ****  ****    0 ROOT
