@<TRIPOS>MOLECULE
ODR
   38    39     1     0     0
SMALL
bcc


@<TRIPOS>ATOM
      1 CAA        -0.0410   -0.5340    0.1700 c3        1 ODR     -0.100100
      2 CAB         1.4580   -0.4120    0.0220 c3        1 ODR      0.128400
      3 OAC         1.9810   -0.3480    1.3560 os        1 ODR     -0.329900
      4 CAD         3.3460   -0.1770    1.4650 ca        1 ODR      0.132100
      5 CAE         3.8120   -0.0320    2.7860 ca        1 ODR     -0.144000
      6 CAF         5.1750    0.1390    3.0100 ca        1 ODR     -0.094300
      7 CAG         6.0680    0.1700    1.9330 ca        1 ODR     -0.152000
      8 CAH         5.6030    0.0240    0.6200 ca        1 ODR      0.031000
      9 CAI         4.2310   -0.1510    0.3830 ca        1 ODR     -0.195000
     10 CAJ         6.5340    0.0640   -0.4810 cc        1 ODR     -0.277600
     11 CAK         6.5190   -0.7600   -1.7010 cc        1 ODR      0.336600
     12 CAL         5.5310   -1.8080   -2.0220 c3        1 ODR     -0.135400
     13 NAM         7.5670   -0.4060   -2.4720 nd        1 ODR     -0.364300
     14 OAN         8.2440    0.5550   -1.8760 os        1 ODR     -0.118100
     15 CAO         7.6470    0.8770   -0.6360 cd        1 ODR      0.282000
     16 CAP         8.2920    1.9270    0.1490 c3        1 ODR     -0.142400
     17 CAQ         5.7040    0.3000    4.4080 c3        1 ODR      0.186400
     18 OAR         4.8510   -0.2930    5.3800 oh        1 ODR     -0.595800
     19 CAS         5.8270    1.7680    4.7860 c3        1 ODR     -0.088100
     20 HAA        -0.4540    0.3500    0.7110 hc        1 ODR      0.050367
     21 HAAA       -0.3030   -1.4520    0.7490 hc        1 ODR      0.050367
     22 HAAB       -0.5040   -0.5950   -0.8440 hc        1 ODR      0.050367
     23 HAB         1.8880   -1.3060   -0.5020 h1        1 ODR      0.038200
     24 HABA        1.7370    0.5210   -0.5350 h1        1 ODR      0.038200
     25 HAE         3.0980   -0.0470    3.6230 ha        1 ODR      0.163000
     26 HAG         7.1440    0.3050    2.1170 ha        1 ODR      0.136000
     27 HAI         3.8720   -0.2550   -0.6510 ha        1 ODR      0.143000
     28 HAL         4.6900   -1.3670   -2.6140 hc        1 ODR      0.059700
     29 HALA        5.9910   -2.6320   -2.6230 hc        1 ODR      0.059700
     30 HALB        5.1180   -2.2380   -1.0750 hc        1 ODR      0.059700
     31 HAP         9.1430    1.4960    0.7380 hc        1 ODR      0.068033
     32 HAPA        7.5530    2.3760    0.8600 hc        1 ODR      0.068033
     33 HAPB        8.6970    2.7280   -0.5200 hc        1 ODR      0.068033
     34 HAQ         6.7180   -0.1960    4.4730 h1        1 ODR      0.038700
     35 HOAR        4.6960   -1.2030    5.1020 ho        1 ODR      0.405000
     36 HAS         6.2230    1.8560    5.8260 hc        1 ODR      0.048033
     37 HASA        6.5230    2.2760    4.0780 hc        1 ODR      0.048033
     38 HASB        4.8290    2.2640    4.7420 hc        1 ODR      0.048033
@<TRIPOS>BOND
     1    1    2 1
     2    1   20 1
     3    1   21 1
     4    1   22 1
     5    2    3 1
     6    2   23 1
     7    2   24 1
     8    3    4 1
     9    4    5 ar
    10    4    9 ar
    11    5    6 ar
    12    5   25 1
    13    6    7 ar
    14    6   17 1
    15    7    8 ar
    16    7   26 1
    17    8    9 ar
    18    8   10 1
    19    9   27 1
    20   10   11 1
    21   10   15 2
    22   11   12 1
    23   11   13 2
    24   12   28 1
    25   12   29 1
    26   12   30 1
    27   13   14 1
    28   14   15 1
    29   15   16 1
    30   16   31 1
    31   16   32 1
    32   16   33 1
    33   17   18 1
    34   17   19 1
    35   17   34 1
    36   18   35 1
    37   19   36 1
    38   19   37 1
    39   19   38 1
@<TRIPOS>SUBSTRUCTURE
     1 ODR         1 TEMP              0 ****  ****    0 ROOT
