@<TRIPOS>MOLECULE
ODT
   49    48     1     0     0
SMALL
bcc


@<TRIPOS>ATOM
      1 O1          1.9270   -1.5930   -0.1420 o         1 ODT     -0.853300
      2 C1          2.3060   -0.3930   -0.2730 c         1 ODT      0.907600
      3 O2          2.5010    0.3920    0.7000 o         1 ODT     -0.853300
      4 C2          2.5700    0.1440   -1.6900 c3        1 ODT     -0.194400
      5 C3          1.4540   -0.2290   -2.6350 c3        1 ODT     -0.065400
      6 C4          1.7840    0.1290   -4.0690 c3        1 ODT     -0.078400
      7 C5          0.6510   -0.2340   -5.0050 c3        1 ODT     -0.078400
      8 C6          0.9820    0.1140   -6.4410 c3        1 ODT     -0.078400
      9 C7         -0.1540   -0.2520   -7.3730 c3        1 ODT     -0.079400
     10 C8          0.1750    0.0990   -8.8080 c3        1 ODT     -0.080400
     11 C9         -0.9590   -0.2760   -9.7390 c3        1 ODT     -0.078400
     12 C10        -0.6660    0.0890  -11.1800 c3        1 ODT     -0.056200
     13 C11        -0.7280    1.5480  -11.4340 c2        1 ODT     -0.132200
     14 C12        -0.5670    2.1250  -12.6340 ce        1 ODT     -0.165000
     15 C13        -0.3060    1.4110  -13.8640 ce        1 ODT     -0.111000
     16 C14        -0.1600    2.0250  -15.0520 cf        1 ODT     -0.142000
     17 C15         0.1010    1.3090  -16.2800 cf        1 ODT     -0.138000
     18 C16         0.2520    1.8820  -17.4830 c2        1 ODT     -0.162200
     19 C17         0.1750    3.3390  -17.7410 c3        1 ODT     -0.052200
     20 C18         0.3810    3.6760  -19.1970 c3        1 ODT     -0.091100
     21 H21         3.5360   -0.2940   -2.0480 hc        1 ODT      0.018700
     22 H22         2.6910    1.2560   -1.6490 hc        1 ODT      0.018700
     23 H31         1.2620   -1.3310   -2.5460 hc        1 ODT      0.043700
     24 H32         0.5120    0.2960   -2.3260 hc        1 ODT      0.043700
     25 H41         2.7170   -0.4070   -4.3850 hc        1 ODT      0.025700
     26 H42         1.9950    1.2280   -4.1450 hc        1 ODT      0.025700
     27 H51        -0.2810    0.3060   -4.6920 hc        1 ODT      0.036700
     28 H52         0.4380   -1.3330   -4.9240 hc        1 ODT      0.036700
     29 H61         1.1950    1.2120   -6.5210 hc        1 ODT      0.034700
     30 H62         1.9140   -0.4260   -6.7530 hc        1 ODT      0.034700
     31 H71        -1.0860    0.2860   -7.0580 hc        1 ODT      0.037700
     32 H72        -0.3650   -1.3510   -7.2930 hc        1 ODT      0.037700
     33 H81         0.3810    1.1990   -8.8890 hc        1 ODT      0.038700
     34 H82         1.1100   -0.4360   -9.1210 hc        1 ODT      0.038700
     35 H91        -1.1380   -1.3820   -9.6750 hc        1 ODT      0.041200
     36 H92        -1.9030    0.2310   -9.4050 hc        1 ODT      0.041200
     37 H101        0.3530   -0.2950  -11.4610 hc        1 ODT      0.049200
     38 H102       -1.4070   -0.4330  -11.8450 hc        1 ODT      0.049200
     39 H11        -0.9200    2.1780  -10.5480 ha        1 ODT      0.128000
     40 H12        -0.6310    3.2250  -12.7210 ha        1 ODT      0.120000
     41 H13        -0.2280    0.3120  -13.7860 ha        1 ODT      0.122000
     42 H14        -0.2360    3.1240  -15.1300 ha        1 ODT      0.122000
     43 H15         0.1780    0.2100  -16.1890 ha        1 ODT      0.120000
     44 H16         0.4510    1.2520  -18.3660 ha        1 ODT      0.119000
     45 H171        0.9500    3.8700  -17.1220 hc        1 ODT      0.049700
     46 H172       -0.8270    3.7260  -17.4070 hc        1 ODT      0.049700
     47 H181       -0.3970    3.1850  -19.8300 hc        1 ODT      0.032700
     48 H182        0.3150    4.7810  -19.3490 hc        1 ODT      0.032700
     49 H183        1.3840    3.3310  -19.5450 hc        1 ODT      0.032700
@<TRIPOS>BOND
     1    1    2 1   
     2    2    3 1   
     3    2    4 1   
     4    4    5 1   
     5    4   21 1   
     6    4   22 1   
     7    5    6 1   
     8    5   23 1   
     9    5   24 1   
    10    6    7 1   
    11    6   25 1   
    12    6   26 1   
    13    7    8 1   
    14    7   27 1   
    15    7   28 1   
    16    8    9 1   
    17    8   29 1   
    18    8   30 1   
    19    9   10 1   
    20    9   31 1   
    21    9   32 1   
    22   10   11 1   
    23   10   33 1   
    24   10   34 1   
    25   11   12 1   
    26   11   35 1   
    27   11   36 1   
    28   12   13 1   
    29   12   37 1   
    30   12   38 1   
    31   13   14 2   
    32   13   39 1   
    33   14   15 1   
    34   14   40 1   
    35   15   16 2   
    36   15   41 1   
    37   16   17 1   
    38   16   42 1   
    39   17   18 2   
    40   17   43 1   
    41   18   19 1   
    42   18   44 1   
    43   19   20 1   
    44   19   45 1   
    45   19   46 1   
    46   20   47 1   
    47   20   48 1   
    48   20   49 1   
@<TRIPOS>SUBSTRUCTURE
     1 ODT         1 TEMP              0 ****  ****    0 ROOT
