@<TRIPOS>MOLECULE
ODV
   14    13     1     0     0
SMALL
bcc


@<TRIPOS>ATOM
      1 OAD         0.1500   -0.1540   -0.1040 o         1 ODV     -0.947833
      2 PAH         1.6320    0.1070   -0.0920 p5        1 ODV      1.214700
      3 OAE         2.5130   -0.9160   -0.7750 o         1 ODV     -0.947833
      4 OAB         2.0160    1.5420   -0.3830 o         1 ODV     -0.947833
      5 CAG         2.1980   -0.0130    1.6720 c3        1 ODV     -0.060100
      6 OAC         1.6840   -1.2020    2.1890 oh        1 ODV     -0.549800
      7 CAF         3.7150    0.0520    1.6520 c3        1 ODV      0.153800
      8 NAA         4.4490   -1.1880    1.4550 n3        1 ODV     -0.923800
      9 HAG         1.7940    0.8710    2.2210 h1        1 ODV      0.003700
     10 HAC         1.9670   -1.2620    3.1140 ho        1 ODV      0.296000
     11 HAF         3.9740    0.7750    0.8240 h1        1 ODV      0.013200
     12 HAH         4.0950    0.4830    2.6290 h1        1 ODV      0.013200
     13 HAI         3.9370   -1.9290    1.9050 hn        1 ODV      0.340800
     14 HAJ         4.4290   -1.4050    0.4670 hn        1 ODV      0.340800
@<TRIPOS>BOND
     1    1    2 1
     2    2    3 1
     3    2    4 1
     4    2    5 1
     5    5    6 1
     6    5    7 1
     7    5    9 1
     8    6   10 1
     9    7    8 1
    10    7   11 1
    11    7   12 1
    12    8   13 1
    13    8   14 1
@<TRIPOS>SUBSTRUCTURE
     1 ODV         1 TEMP              0 ****  ****    0 ROOT
