@<TRIPOS>MOLECULE
molecule
   48    50     1     0     0
SMALL
bcc


@<TRIPOS>ATOM
      1 C1           0.0000     0.0000     0.0000 c3         1 OE1      -0.090600
      2 C2           1.5310     0.0000     0.0000 c3         1 OE1      -0.107900
      3 C3           2.0400     0.0000     1.4420 c3         1 OE1       0.234300
      4 N4           3.5060    -0.0010     1.4430 n3         1 OE1      -0.817500
      5 C5           4.2380     1.2640     1.3320 c3         1 OE1       0.234300
      6 C6           4.3830     1.8910     2.7200 c3         1 OE1      -0.107900
      7 C7           5.1480     3.2110     2.6060 c3         1 OE1      -0.090600
      8 S8           4.3340    -1.4290     1.5660 sy         1 OE1       1.430200
      9 O9           5.6160    -1.1050     2.0850 o          1 OE1      -0.637800
     10 O10          3.4530    -2.3500     2.1930 o          1 OE1      -0.637800
     11 C11          4.5950    -2.0240    -0.0710 ca         1 OE1      -0.329500
     12 C12          5.7410    -1.6550    -0.7620 ca         1 OE1      -0.032000
     13 C13          5.9620    -2.1120    -2.0440 ca         1 OE1      -0.146000
     14 C14          5.0310    -2.9470    -2.6480 ca         1 OE1      -0.051200
     15 C15          3.8700    -3.3200    -1.9480 ca         1 OE1       0.070400
     16 C16          3.6700    -2.8490    -0.6460 ca         1 OE1       0.040000
     17 N17          3.1520    -4.1270    -2.7660 nc         1 OE1      -0.587100
     18 C18          3.7820    -4.2720    -3.9060 cd         1 OE1       0.479400
     19 N19          4.9520    -3.5600    -3.8820 na         1 OE1      -0.260300
     20 C21          3.3040    -5.0840    -5.0460 ca         1 OE1      -0.107900
     21 C22          2.0920    -5.7690    -4.9580 ca         1 OE1      -0.099500
     22 C23          1.6500    -6.5230    -6.0250 ca         1 OE1      -0.129500
     23 C24          2.4070    -6.6020    -7.1820 ca         1 OE1      -0.113000
     24 C25          3.6100    -5.9250    -7.2750 ca         1 OE1      -0.129500
     25 C26          4.0600    -5.1620    -6.2160 ca         1 OE1      -0.099500
     26 H11C        -0.3610    -0.8890     0.5030 hc         1 OE1       0.035700
     27 H12C        -0.3610     0.8800     0.5190 hc         1 OE1       0.035700
     28 H13C        -0.3610     0.0090    -1.0210 hc         1 OE1       0.035700
     29 H21C         1.8920    -0.8850    -0.5110 hc         1 OE1       0.049200
     30 H22C         1.8920     0.8850    -0.5110 hc         1 OE1       0.049200
     31 H31C         1.6800     0.8850     1.9530 h1         1 OE1       0.057950
     32 H32C         1.6790    -0.8840     1.9530 h1         1 OE1       0.057950
     33 H51C         3.6930     1.9410     0.6860 h1         1 OE1       0.057950
     34 H52C         5.2200     1.0780     0.9150 h1         1 OE1       0.057950
     35 H61C         4.9280     1.2140     3.3670 hc         1 OE1       0.049200
     36 H62C         3.4010     2.0780     3.1370 hc         1 OE1       0.049200
     37 H71C         6.1470     3.0190     2.2360 hc         1 OE1       0.035700
     38 H72C         4.6290     3.8710     1.9210 hc         1 OE1       0.035700
     39 H73C         5.2080     3.6790     3.5810 hc         1 OE1       0.035700
     40 H12          6.4710    -1.0100    -0.2880 ha         1 OE1       0.152000
     41 H16          2.8250    -3.2020    -0.0660 ha         1 OE1       0.164000
     42 H13          6.8580    -1.8210    -2.5790 ha         1 OE1       0.132000
     43 H19          5.6240    -3.4970    -4.6200 hn         1 OE1       0.307700
     44 H22          1.4980    -5.7080    -4.0540 ha         1 OE1       0.140500
     45 H26          5.0020    -4.6330    -6.2910 ha         1 OE1       0.140500
     46 H23          0.7090    -7.0550    -5.9580 ha         1 OE1       0.136000
     47 H24          2.0570    -7.1970    -8.0160 ha         1 OE1       0.134000
     48 H25          4.1970    -5.9890    -8.1830 ha         1 OE1       0.136000
@<TRIPOS>BOND
     1     1     2 1
     2     2     3 1
     3     3     4 1
     4     4     5 1
     5     4     8 1
     6     5     6 1
     7     6     7 1
     8     8     9 2
     9     8    10 2
    10     8    11 1
    11    11    12 ar
    12    11    16 ar
    13    12    13 ar
    14    13    14 ar
    15    14    15 ar
    16    14    19 1
    17    15    16 ar
    18    15    17 1
    19    17    18 2
    20    18    19 1
    21    18    20 1
    22    20    21 ar
    23    20    25 ar
    24    21    22 ar
    25    22    23 ar
    26    23    24 ar
    27    24    25 ar
    28     1    26 1
    29     1    27 1
    30     1    28 1
    31     2    29 1
    32     2    30 1
    33     3    31 1
    34     3    32 1
    35     5    33 1
    36     5    34 1
    37     6    35 1
    38     6    36 1
    39     7    37 1
    40     7    38 1
    41     7    39 1
    42    12    40 1
    43    16    41 1
    44    13    42 1
    45    19    43 1
    46    21    44 1
    47    25    45 1
    48    22    46 1
    49    23    47 1
    50    24    48 1
@<TRIPOS>SUBSTRUCTURE
     1 OE1         1 TEMP              0 ****  ****    0 ROOT
