@<TRIPOS>MOLECULE
OE2
   36    36     1     0     0
SMALL
bcc


@<TRIPOS>ATOM
      1 C19          0.0000     0.0000     0.0000 ca         1 OE2      -0.066000
      2 C18          1.3820     0.0000     0.0000 ca         1 OE2      -0.140000
      3 C13         -0.0050     0.0010     2.3960 ca         1 OE2      -0.058000
      4 C12         -0.6930     0.0020     1.1960 ca         1 OE2      -0.122300
      5 C16          2.0740     0.0000     1.2020 ca         1 OE2       0.156100
      6 C14          1.3770     0.0010     2.4020 ca         1 OE2      -0.012900
      7 C10         -2.7020    -1.4180     1.1920 ce         1 OE2       0.325300
      8 C2          -3.0350    -2.0830    -0.0830 c          1 OE2       0.520800
      9 C11         -2.1990     0.0020     1.1920 c3         1 OE2      -0.006400
     10 C4          -3.8160    -4.0130    -1.3500 c3         1 OE2       0.096000
     11 C5          -4.2990    -5.4380    -1.0720 c3         1 OE2      -0.009600
     12 N20         -2.8420    -2.0550     2.3080 n2         1 OE2      -0.389200
     13 N8          -5.2100    -7.7690    -2.1980 nz         1 OE2      -0.147500
     14 N3          -3.4850    -3.3530    -0.0840 ns         1 OE2      -0.210900
     15 O1          -2.9040    -1.4850    -1.1330 o          1 OE2      -0.612100
     16 O7          -5.8580    -5.6610    -3.2250 o          1 OE2      -0.483300
     17 O9          -3.5320    -6.4850    -3.4030 o          1 OE2      -0.483300
     18 O17          3.4330    -0.0010     1.2050 oh         1 OE2      -0.491100
     19 O21         -2.6400    -1.3830     3.5380 oh         1 OE2      -0.342500
     20 S6          -4.7070    -6.2540    -2.6400 s6         1 OE2       0.854900
     21 Br           2.3160     0.0020     4.0430 br         1 OE2      -0.094100
     22 H19         -0.5410     0.0000    -0.9390 ha         1 OE2       0.121000
     23 H18          1.9240    -0.0010    -0.9380 ha         1 OE2       0.122000
     24 H13         -0.5510     0.0020     3.3320 ha         1 OE2       0.127000
     25 H111        -2.5580     0.5120     0.3070 hc         1 OE2       0.047200
     26 H112        -2.5630     0.5130     2.0760 hc         1 OE2       0.047200
     27 H17          3.7490     0.8840     1.1330 ho         1 OE2       0.413000
     28 H3          -3.5930    -3.8460     0.7800 hn         1 OE2       0.195500
     29 H41C        -4.5980    -3.4580    -1.8530 h1         1 OE2       0.048200
     30 H42C        -2.9350    -4.0470    -1.9800 h1         1 OE2       0.048200
     31 H51C        -5.1800    -5.4040    -0.4420 h1         1 OE2       0.083200
     32 H52C        -3.5170    -5.9930    -0.5690 h1         1 OE2       0.083200
     33 H21         -3.0030    -1.8960     4.2400 ho         1 OE2       0.422000
     34 H81N        -6.0070    -7.6940    -1.5960 hn         1 OE2       0.318133
     35 H82N        -5.4580    -8.2900    -3.0160 hn         1 OE2       0.318133
     36 H83         -4.4700    -8.2390    -1.7140 hn         1 OE2       0.318133
@<TRIPOS>BOND
     1     1     2 ar  
     2     1     4 ar  
     3     1    22 1   
     4     2     5 ar  
     5     2    23 1   
     6     3     4 ar  
     7     3     6 ar  
     8     3    24 1   
     9     4     9 1   
    10     5     6 ar  
    11     5    18 1   
    12     6    21 1   
    13     7     8 1   
    14     7     9 1   
    15     7    12 2   
    16     8    14 1   
    17     8    15 2   
    18     9    25 1   
    19     9    26 1   
    20    10    11 1   
    21    10    14 1   
    22    10    29 1   
    23    10    30 1   
    24    11    20 1   
    25    11    31 1   
    26    11    32 1   
    27    12    19 1   
    28    13    20 1   
    29    13    34 1   
    30    13    35 1   
    31    13    36 1   
    32    14    28 1   
    33    16    20 2   
    34    17    20 2   
    35    18    27 1   
    36    19    33 1   
@<TRIPOS>SUBSTRUCTURE
     1 OE2         1 TEMP              0 ****  ****    0 ROOT
