@<TRIPOS>MOLECULE
OEF
   41    42     1     0     0
SMALL
bcc


@<TRIPOS>ATOM
      1 C1          0.0910   -0.0380   -0.2340 ca        1 OEF     -0.031300
      2 C2          2.2650    1.3110    4.1120 ca        1 OEF      0.102100
      3 C3          1.4860   -0.0240   -0.1300 ca        1 OEF     -0.100000
      4 C4          1.9950    2.5540    3.5330 ca        1 OEF     -0.146000
      5 C5          2.1120    0.0670    1.1160 ca        1 OEF     -0.026900
      6 C6          2.3570    3.7320    4.1940 ca        1 OEF     -0.059300
      7 C7          1.3280    0.1410    2.2800 ca        1 OEF      0.098100
      8 C8          2.9950    3.6270    5.4450 ca        1 OEF      0.085100
      9 C9         -0.0760    0.1290    2.1880 ca        1 OEF     -0.026900
     10 C10         3.2640    2.3770    6.0230 ca        1 OEF     -0.187000
     11 C11        -0.6810    0.0380    0.9330 ca        1 OEF     -0.100000
     12 C12         2.9010    1.2110    5.3600 ca        1 OEF     -0.120000
     13 C13        -0.5750   -0.1350   -1.5600 c3        1 OEF     -0.046100
     14 C14        -1.2750    1.1470   -1.9540 c3        1 OEF     -0.198400
     15 BR1         3.9900    0.0810    1.1630 br        1 OEF     -0.087600
     16 C15         2.0710    5.0660    3.5800 c3        1 OEF     -0.019400
     17 BR2        -1.1830    0.2240    3.7010 br        1 OEF     -0.087600
     18 O2          1.9400    0.0870    3.5320 os        1 OEF     -0.240200
     19 O1          3.3470    4.8030    6.0820 oh        1 OEF     -0.504100
     20 C18        -2.2520    0.8970   -3.1230 c         1 OEF      0.910600
     21 C16         0.5780    5.2670    3.3930 c3        1 OEF     -0.088100
     22 O3         -2.3530    1.8010   -3.9980 o         1 OEF     -0.842300
     23 O4         -2.9070   -0.1840   -3.1320 o         1 OEF     -0.842300
     24 C17         2.7960    5.2220    2.2570 c3        1 OEF     -0.088100
     25 H3          2.0910   -0.0820   -1.0500 ha        1 OEF      0.162000
     26 H11        -1.7810    0.0280    0.8380 ha        1 OEF      0.162000
     27 H131        0.1740   -0.4060   -2.3500 hc        1 OEF      0.068700
     28 H132       -1.3470   -0.9580   -1.5380 hc        1 OEF      0.068700
     29 H4          1.4940    2.6110    2.5530 ha        1 OEF      0.160000
     30 H12         3.1010    0.2220    5.7940 ha        1 OEF      0.148000
     31 H15         2.4450    5.8700    4.2800 hc        1 OEF      0.065700
     32 H10         3.7610    2.3190    7.0010 ha        1 OEF      0.127000
     33 H1          3.7620    4.5650    6.9220 ho        1 OEF      0.410000
     34 H141       -0.5320    1.9270   -2.2500 hc        1 OEF      0.027200
     35 H142       -1.8710    1.5430   -1.0930 hc        1 OEF      0.027200
     36 H161        0.1610    4.5040    2.6920 hc        1 OEF      0.037033
     37 H162        0.0480    5.1780    4.3700 hc        1 OEF      0.037033
     38 H163        0.3820    6.2810    2.9700 hc        1 OEF      0.037033
     39 H171        2.6000    6.2360    1.8330 hc        1 OEF      0.037033
     40 H172        2.4470    4.4570    1.5220 hc        1 OEF      0.037033
     41 H173        3.8970    5.1000    2.4000 hc        1 OEF      0.037033
@<TRIPOS>BOND
     1    1    3 ar  
     2    1   11 ar  
     3    1   13 1   
     4    2    4 ar  
     5    2   12 ar  
     6    2   18 1   
     7    3    5 ar  
     8    3   25 1   
     9    4    6 ar  
    10    4   29 1   
    11    5    7 ar  
    12    5   15 1   
    13    6    8 ar  
    14    6   16 1   
    15    7    9 ar  
    16    7   18 1   
    17    8   10 ar  
    18    8   19 1   
    19    9   11 ar  
    20    9   17 1   
    21   10   12 ar  
    22   10   32 1   
    23   11   26 1   
    24   12   30 1   
    25   13   14 1   
    26   13   27 1   
    27   13   28 1   
    28   14   20 1   
    29   14   34 1   
    30   14   35 1   
    31   16   21 1   
    32   16   24 1   
    33   16   31 1   
    34   19   33 1   
    35   20   22 1   
    36   20   23 1   
    37   21   36 1   
    38   21   37 1   
    39   21   38 1   
    40   24   39 1   
    41   24   40 1   
    42   24   41 1   
@<TRIPOS>SUBSTRUCTURE
     1 OEF         1 TEMP              0 ****  ****    0 ROOT
