@<TRIPOS>MOLECULE
molecule
   41    42     1     0     0
SMALL
bcc


@<TRIPOS>ATOM
      1 C1           0.0000     0.0000     0.0000 ca         1 OEF      -0.041300
      2 C2           2.3930     1.2040     4.1480 ca         1 OEF       0.123100
      3 C3           1.3950     0.0000     0.0000 ca         1 OEF      -0.093000
      4 C4           2.0210     2.3840     3.5020 ca         1 OEF      -0.168000
      5 C5           2.0920     0.0000     1.2080 ca         1 OEF      -0.024400
      6 C6           2.3470     3.6180     4.0650 ca         1 OEF      -0.050300
      7 C7           1.3840     0.0010     2.4000 ca         1 OEF       0.111100
      8 C8           3.0430     3.6740     5.2720 ca         1 OEF       0.083100
      9 C9          -0.0010     0.0000     2.4150 ca         1 OEF      -0.024400
     10 C10          3.4130     2.4930     5.9170 ca         1 OEF      -0.174000
     11 C11         -0.6980     0.0000     1.2080 ca         1 OEF      -0.093000
     12 C12          3.0880     1.2590     5.3550 ca         1 OEF      -0.132000
     13 C13         -0.7450     0.0010    -1.2930 c3         1 OEF      -0.046100
     14 C14         -1.0520     1.4040    -1.8270 c3         1 OEF      -0.169400
     15 Br1          3.9880    -0.0010     1.1650 br         1 OEF      -0.089600
     16 C15          1.9400     4.8700     3.3610 c3         1 OEF      -0.034400
     17 Br2         -0.9880     0.0050     4.0340 br         1 OEF      -0.089600
     18 O2           2.0750    -0.0000     3.5980 os         1 OEF      -0.244200
     19 O1           3.3670     4.8710     5.8350 oh         1 OEF      -0.509100
     20 C18         -1.8370     1.3500    -3.1160 c          1 OEF       0.892600
     21 C16          0.4110     5.0030     3.2340 c3         1 OEF      -0.081600
     22 O3          -2.0870     2.5780    -3.6330 o          1 OEF      -0.847800
     23 O4          -2.1910     0.3090    -3.6540 o          1 OEF      -0.847800
     24 C17          2.5940     5.0040     1.9730 c3         1 OEF      -0.081600
     25 H3           1.9370    -0.0000    -0.9380 ha         1 OEF       0.159500
     26 H11         -1.7820     0.0000     1.2070 ha         1 OEF       0.159500
     27 H131        -0.1550    -0.5290    -2.0310 hc         1 OEF       0.059700
     28 H132        -1.6800    -0.5280    -1.1530 hc         1 OEF       0.059700
     29 H4           1.4810     2.3410     2.5640 ha         1 OEF       0.160000
     30 H12          3.3760     0.3430     5.8560 ha         1 OEF       0.141000
     31 H15          2.2870     5.7030     3.9620 hc         1 OEF       0.057700
     32 H10          3.9540     2.5360     6.8550 ha         1 OEF       0.129000
     33 H1           4.2240     4.8130     6.2240 ho         1 OEF       0.412000
     34 H141        -0.1200     1.9270    -2.0030 hc         1 OEF       0.035700
     35 H142        -1.6270     1.9460    -1.0860 hc         1 OEF       0.035700
     36 H161         0.1500     6.0450     3.0910 hc         1 OEF       0.037533
     37 H162        -0.0590     4.6340     4.1370 hc         1 OEF       0.037533
     38 H163         0.0680     4.4250     2.3850 hc         1 OEF       0.037533
     39 H171         2.5920     6.0440     1.6720 hc         1 OEF       0.037533
     40 H172         3.6140     4.6430     2.0180 hc         1 OEF       0.037533
     41 H173         2.0350     4.4180     1.2530 hc         1 OEF       0.037533
@<TRIPOS>BOND
     1     1     3 ar
     2     1    11 ar
     3     1    13 1
     4     2     4 ar
     5     2    12 ar
     6     2    18 1
     7     3     5 ar
     8     3    25 1
     9     4     6 ar
    10     4    29 1
    11     5     7 ar
    12     5    15 1
    13     6     8 ar
    14     6    16 1
    15     7     9 ar
    16     7    18 1
    17     8    10 ar
    18     8    19 1
    19     9    11 ar
    20     9    17 1
    21    10    12 ar
    22    10    32 1
    23    11    26 1
    24    12    30 1
    25    13    14 1
    26    13    27 1
    27    13    28 1
    28    14    20 1
    29    14    34 1
    30    14    35 1
    31    16    21 1
    32    16    24 1
    33    16    31 1
    34    19    33 1
    35    20    22 1
    36    20    23 1
    37    21    36 1
    38    21    37 1
    39    21    38 1
    40    24    39 1
    41    24    40 1
    42    24    41 1
@<TRIPOS>SUBSTRUCTURE
     1 OEF         1 TEMP              0 ****  ****    0 ROOT
