@<TRIPOS>MOLECULE
OEG
   13    12     1     0     0
SMALL
bcc


@<TRIPOS>ATOM
      1 C1         -0.1570   -0.4450   -0.0240 c         1 OEG      0.919600
      2 O1          0.8010    0.0520   -0.6860 o         1 OEG     -0.863300
      3 C2         -0.5640    0.2320    1.3000 c3        1 OEG      0.022400
      4 O2          0.1050   -0.3570    2.4130 os        1 OEG     -0.376600
      5 C3         -0.2890    0.2810    3.6250 c3        1 OEG      0.022400
      6 C4          0.4250   -0.3370    4.8440 c         1 OEG      0.919600
      7 O3          1.5040    0.1930    5.2430 o         1 OEG     -0.863300
      8 O4         -0.1520   -1.2740    5.4700 o         1 OEG     -0.863300
      9 O5         -0.8680   -1.3980   -0.4580 o         1 OEG     -0.863300
     10 H1         -1.6750    0.1310    1.4390 h1        1 OEG     -0.013300
     11 H2         -0.3070    1.3250    1.2490 h1        1 OEG     -0.013300
     12 H3         -1.4000    0.1750    3.7560 h1        1 OEG     -0.013300
     13 H4         -0.0380    1.3750    3.5670 h1        1 OEG     -0.013300
@<TRIPOS>BOND
     1    1    2 1   
     2    1    3 1   
     3    1    9 1   
     4    3    4 1   
     5    3   10 1   
     6    3   11 1   
     7    4    5 1   
     8    5    6 1   
     9    5   12 1   
    10    5   13 1   
    11    6    7 1   
    12    6    8 1   
@<TRIPOS>SUBSTRUCTURE
     1 OEG         1 TEMP              0 ****  ****    0 ROOT
