@<TRIPOS>MOLECULE
molecule
   13    12     1     0     0
SMALL
bcc


@<TRIPOS>ATOM
      1 C1           0.0000     0.0000     0.0000 c          1 OEG       0.894600
      2 O1           1.2090     0.0000     0.0000 o          1 OEG      -0.860300
      3 C2          -0.7520     0.0000     1.3050 c3         1 OEG       0.027400
      4 O2           0.1770    -0.0060     2.3910 os         1 OEG      -0.372600
      5 C3          -0.4360    -0.0050     3.6820 c3         1 OEG       0.027400
      6 C4           0.6300    -0.0110     4.7460 c          1 OEG       0.894600
      7 O3           1.7970    -0.0150     4.4310 o          1 OEG      -0.860300
      8 O4           0.2850    -0.0120     6.0430 o          1 OEG      -0.860300
      9 O5          -0.6720     0.0040    -1.1620 o          1 OEG      -0.860300
     10 H1          -1.3710     0.8870     1.3650 h1         1 OEG      -0.008300
     11 H2          -1.3780    -0.8820     1.3610 h1         1 OEG      -0.008300
     12 H3          -1.0560    -0.8870     3.7880 h1         1 OEG      -0.008300
     13 H4          -1.0490     0.8820     3.7900 h1         1 OEG      -0.008300
@<TRIPOS>BOND
     1     1     3 1
     2     1     9 1
     3     2     1 1
     4     3     4 1
     5     5     4 1
     6     5     6 1
     7     6     7 1
     8     6     8 1
     9     3    10 1
    10     3    11 1
    11     5    12 1
    12     5    13 1
@<TRIPOS>SUBSTRUCTURE
     1 OEG         1 TEMP              0 ****  ****    0 ROOT
