@<TRIPOS>MOLECULE
molecule
   44    44     1     0     0
SMALL
bcc


@<TRIPOS>ATOM
      1 C1           0.0000     0.0000     0.0000 c          1 OEL       0.887600
      2 C2           1.5070     0.0000     0.0000 c3         1 OEL       0.033100
      3 C3           2.0170     0.0000     1.4430 c3         1 OEL       0.130600
      4 F3           1.5990    -1.1690     2.0880 f          1 OEL      -0.226300
      5 C4           3.5480     0.0610     1.4360 c3         1 OEL       0.144500
      6 N4           4.0420     0.1370     2.8120 n2         1 OEL      -0.218200
      7 C5           3.9950     1.3050     0.6610 c3         1 OEL       0.108700
      8 N5           5.4570     1.3330     0.5830 ns         1 OEL      -0.647900
      9 C6           3.4090     1.2540    -0.7530 c3         1 OEL       0.025100
     10 O6           1.9840     1.1670    -0.6730 os         1 OEL      -0.355600
     11 C7           3.7940     2.5020    -1.5020 c          1 OEL       0.581100
     12 O7           4.7710     2.5020    -2.2130 o          1 OEL      -0.478100
     13 C8           2.9630     3.7510    -1.3640 c3         1 OEL       0.069100
     14 O8           3.7440     4.8870    -1.7400 oh         1 OEL      -0.584800
     15 C9           1.7380     3.6510    -2.2760 c3         1 OEL       0.125400
     16 O9           0.8930     4.7830    -2.0620 oh         1 OEL      -0.614800
     17 O1A         -0.6040     0.9470    -0.4470 o          1 OEL      -0.741800
     18 O1B         -0.6710    -1.0540     0.4900 o          1 OEL      -0.741800
     19 N41          3.8800    -0.7230     3.5170 n1         1 OEL       0.416000
     20 N42          3.7280    -1.5740     4.2370 n2         1 OEL      -0.463400
     21 C51          6.2420     1.6190     1.7700 c          1 OEL       0.678100
     22 C52          7.7650     1.6960     1.6780 c3         1 OEL      -0.141700
     23 O52          5.7000     1.8300     2.8020 o          1 OEL      -0.558100
     24 C53          8.3420     0.2840     1.6010 c3         1 OEL      -0.082600
     25 C54          8.3150     2.4040     2.9150 c3         1 OEL      -0.082600
     26 H2           1.8730    -0.8830    -0.5100 h1         1 OEL       0.059700
     27 H3           1.6250     0.8660     1.9640 h1         1 OEL       0.110700
     28 H4           3.9420    -0.8250     0.9530 h1         1 OEL       0.092700
     29 H5           3.6380     2.1930     1.1680 h1         1 OEL       0.105700
     30 HN5          5.9160     1.1260    -0.2820 hn         1 OEL       0.337500
     31 H6           3.7930     0.3830    -1.2700 h1         1 OEL       0.068700
     32 H8           2.6410     3.8590    -0.3360 h1         1 OEL       0.062700
     33 HO8          3.5580     5.6040    -1.1560 ho         1 OEL       0.416000
     34 H9           1.1750     2.7600    -2.0270 h1         1 OEL       0.056200
     35 H9A          2.0600     3.5990    -3.3090 h1         1 OEL       0.056200
     36 HO9          0.0860     4.6660    -2.5360 ho         1 OEL       0.419000
     37 HN42         3.2470    -2.4000     3.9400 hn         1 OEL       0.599400
     38 H52          8.0460     2.2490     0.7900 hc         1 OEL       0.078700
     39 H53          7.9700    -0.3040     2.4320 hc         1 OEL       0.045867
     40 H53A         8.0420    -0.1790     0.6690 hc         1 OEL       0.045867
     41 H53B         9.4230     0.3320     1.6490 hc         1 OEL       0.045867
     42 H54          9.3860     2.5260     2.8140 hc         1 OEL       0.045867
     43 H54A         7.8480     3.3760     3.0110 hc         1 OEL       0.045867
     44 H54B         8.1000     1.8110     3.7960 hc         1 OEL       0.045867
@<TRIPOS>BOND
     1    17     1 1
     2     1    18 1
     3     1     2 1
     4     3     2 1
     5     2    10 1
     6     2    26 1
     7     4     3 1
     8     3     5 1
     9     3    27 1
    10     6     5 1
    11     5     7 1
    12     5    28 1
    13     7     9 1
    14     7     8 1
    15     7    29 1
    16     8    21 1
    17     8    30 1
    18    10     9 1
    19     9    11 1
    20     9    31 1
    21    11    13 1
    22    11    12 2
    23    15    13 1
    24    13    14 1
    25    13    32 1
    26    14    33 1
    27    15    16 1
    28    15    34 1
    29    15    35 1
    30    16    36 1
    31    20    19 2
    32    20    37 1
    33    21    23 2
    34    21    22 1
    35    25    22 1
    36    22    24 1
    37    22    38 1
    38    24    39 1
    39    24    40 1
    40    24    41 1
    41    25    42 1
    42    25    43 1
    43    25    44 1
    44     6    19 2
@<TRIPOS>SUBSTRUCTURE
     1 OEL         1 TEMP              0 ****  ****    0 ROOT
