@<TRIPOS>MOLECULE
OEL
   44    44     1     0     0
SMALL
bcc


@<TRIPOS>ATOM
      1 C1           0.0000     0.0000     0.0000 c          1 OEL       0.961600
      2 C2           1.5070     0.0000     0.0000 c3         1 OEL       0.063100
      3 C3           2.0170     0.0000     1.4430 c3         1 OEL       0.128600
      4 F3           1.5990    -1.1690     2.0880 f          1 OEL      -0.221300
      5 C4           3.5480     0.0610     1.4360 c3         1 OEL       0.133500
      6 N4           4.0420     0.1370     2.8120 n2         1 OEL      -0.349200
      7 C5           3.9950     1.3050     0.6610 c3         1 OEL       0.008700
      8 N5           5.4570     1.3330     0.5830 ns         1 OEL      -0.300900
      9 C6           3.4090     1.2540    -0.7530 c3         1 OEL       0.057100
     10 O6           1.9840     1.1670    -0.6730 os         1 OEL      -0.331600
     11 C7           3.7940     2.5020    -1.5020 c          1 OEL       0.609100
     12 O7           4.7710     2.5020    -2.2130 o          1 OEL      -0.515100
     13 C8           2.9630     3.7510    -1.3640 c3         1 OEL       0.105100
     14 O8           3.7440     4.8870    -1.7400 oh         1 OEL      -0.572800
     15 C9           1.7380     3.6510    -2.2760 c3         1 OEL       0.179400
     16 O9           0.8930     4.7830    -2.0620 oh         1 OEL      -0.596800
     17 O1A         -0.6040     0.9470    -0.4470 o          1 OEL      -0.804300
     18 O1B         -0.6710    -1.0540     0.4900 o          1 OEL      -0.804300
     19 N41          3.8800    -0.7230     3.5170 n1         1 OEL       0.818000
     20 N42          3.7090    -1.5930     4.2080 n2         1 OEL      -0.465400
     21 C51          6.2130     2.2280     1.4400 c          1 OEL       0.623100
     22 C52          7.7390     2.2160     1.4000 c3         1 OEL      -0.115700
     23 O52          5.6470     2.9350     2.2030 o          1 OEL      -0.581100
     24 C53          8.2370     3.3960     0.5680 c3         1 OEL       0.014900
     25 C54          8.2880     2.3280     2.8230 c3         1 OEL       0.014900
     26 H2           1.8730    -0.8830    -0.5100 h1         1 OEL       0.025700
     27 H3           1.6250     0.8660     1.9640 h1         1 OEL       0.073700
     28 H4           3.9420    -0.8250     0.9530 h1         1 OEL       0.050700
     29 H5           3.6380     2.1930     1.1680 h1         1 OEL       0.092700
     30 HN5          5.9380     0.7050    -0.0310 hn         1 OEL       0.194500
     31 H6           3.7930     0.3830    -1.2700 h1         1 OEL       0.032700
     32 H8           2.6410     3.8590    -0.3360 h1         1 OEL       0.026700
     33 HO8          3.4140     5.6540    -1.3020 ho         1 OEL       0.403000
     34 H9           2.0570     3.4180    -3.2840 h1         1 OEL       0.024700
     35 H9A          1.0830     2.8680    -1.9140 h1         1 OEL       0.024700
     36 HO9          0.1770     4.7610    -2.6760 ho         1 OEL       0.404000
     37 HN42         3.2250    -2.4050     3.8800 hn         1 OEL       0.487400
     38 H52          8.0810     1.2900     0.9540 hc         1 OEL       0.024700
     39 H53          9.3040     3.5140     0.7100 hc         1 OEL       0.012867
     40 H53A         8.0300     3.2120    -0.4800 hc         1 OEL       0.012867
     41 H53B         7.7280     4.3000     0.8820 hc         1 OEL       0.012867
     42 H54          9.3670     2.2370     2.8020 hc         1 OEL       0.012867
     43 H54A         7.8710     1.5370     3.4340 hc         1 OEL       0.012867
     44 H54B         8.0150     3.2900     3.2400 hc         1 OEL       0.012867
@<TRIPOS>BOND
     1     1     2 1   
     2     1    17 1   
     3     1    18 1   
     4     2     3 1   
     5     2    10 1   
     6     2    26 1   
     7     3     4 1   
     8     3     5 1   
     9     3    27 1   
    10     5     6 1   
    11     5     7 1   
    12     5    28 1   
    13     6    19 2   
    14     7     8 1   
    15     7     9 1   
    16     7    29 1   
    17     8    21 1   
    18     8    30 1   
    19     9    10 1   
    20     9    11 1   
    21     9    31 1   
    22    11    12 2   
    23    11    13 1   
    24    13    14 1   
    25    13    15 1   
    26    13    32 1   
    27    14    33 1   
    28    15    16 1   
    29    15    34 1   
    30    15    35 1   
    31    16    36 1   
    32    19    20 2   
    33    20    37 1   
    34    21    22 1   
    35    21    23 2   
    36    22    24 1   
    37    22    25 1   
    38    22    38 1   
    39    24    39 1   
    40    24    40 1   
    41    24    41 1   
    42    25    42 1   
    43    25    43 1   
    44    25    44 1   
@<TRIPOS>SUBSTRUCTURE
     1 OEL         1 TEMP              0 ****  ****    0 ROOT
