@<TRIPOS>MOLECULE
molecule
   35    34     1     0     0
SMALL
bcc


@<TRIPOS>ATOM
      1 C1           0.0000     0.0000     0.0000 c3         1 OES      -0.092100
      2 C2           1.5300     0.0000     0.0000 c3         1 OES      -0.084400
      3 C3           2.0410     0.0000     1.4410 c3         1 OES      -0.081400
      4 C4           3.5700     0.0010     1.4420 c3         1 OES      -0.081400
      5 C5           4.0810     0.0010     2.8840 c3         1 OES      -0.082400
      6 C6           5.6100     0.0010     2.8850 c3         1 OES      -0.076400
      7 C7           6.1210     0.0010     4.3260 c3         1 OES      -0.056400
      8 C8           7.6490     0.0020     4.3260 c3         1 OES      -0.079100
      9 S2           8.2550     0.0020     6.0350 s4         1 OES       0.269600
     10 C22         10.0440     0.0020     5.7380 c3         1 OES      -0.085100
     11 C23         10.7850     0.0020     7.0760 c3         1 OES       0.169400
     12 O2           7.8800    -1.2110     6.6710 o          1 OES      -0.505200
     13 O3          12.1940     0.0030     6.8410 oh         1 OES      -0.606800
     14 HC11        -0.3610    -0.0000    -1.0210 hc         1 OES       0.033033
     15 HC12        -0.3610    -0.8840     0.5110 hc         1 OES       0.033033
     16 HC13        -0.3610     0.8850     0.5110 hc         1 OES       0.033033
     17 HC21         1.8910     0.8840    -0.5110 hc         1 OES       0.040200
     18 HC22         1.8910    -0.8840    -0.5110 hc         1 OES       0.040200
     19 HC31         1.6790     0.8840     1.9520 hc         1 OES       0.041200
     20 HC32         1.6800    -0.8850     1.9520 hc         1 OES       0.041200
     21 HC41         3.9310    -0.8840     0.9320 hc         1 OES       0.041200
     22 HC42         3.9310     0.8850     0.9320 hc         1 OES       0.041200
     23 HC51         3.7200    -0.8840     3.3950 hc         1 OES       0.042700
     24 HC52         3.7200     0.8850     3.3950 hc         1 OES       0.042700
     25 HC61         5.9720    -0.8830     2.3740 hc         1 OES       0.043200
     26 HC62         5.9710     0.8860     2.3740 hc         1 OES       0.043200
     27 HC71         5.7600    -0.8840     4.8370 hc         1 OES       0.048700
     28 HC72         5.7590     0.8850     4.8370 hc         1 OES       0.048700
     29 HC81         8.0110    -0.8820     3.8140 h1         1 OES       0.076700
     30 HC82         8.0100     0.8870     3.8150 h1         1 OES       0.076700
     31 H221        10.3160     0.8860     5.1740 h1         1 OES       0.086700
     32 H222        10.3160    -0.8830     5.1750 h1         1 OES       0.086700
     33 H231        10.5130    -0.8820     7.6400 h1         1 OES       0.025700
     34 H232        10.5120     0.8870     7.6390 h1         1 OES       0.025700
     35 HO31        12.6500     0.0510     7.6650 ho         1 OES       0.403000
@<TRIPOS>BOND
     1     1     2 1
     2     1    14 1
     3     1    15 1
     4     1    16 1
     5     2     3 1
     6     2    17 1
     7     2    18 1
     8     3     4 1
     9     3    19 1
    10     3    20 1
    11     4     5 1
    12     4    21 1
    13     4    22 1
    14     5     6 1
    15     5    23 1
    16     5    24 1
    17     6     7 1
    18     6    25 1
    19     6    26 1
    20     7     8 1
    21     7    27 1
    22     7    28 1
    23     8     9 1
    24     8    29 1
    25     8    30 1
    26     9    10 1
    27     9    12 2
    28    10    11 1
    29    10    31 1
    30    10    32 1
    31    11    13 1
    32    11    33 1
    33    11    34 1
    34    13    35 1
@<TRIPOS>SUBSTRUCTURE
     1 OES         1 TEMP              0 ****  ****    0 ROOT
