@<TRIPOS>MOLECULE
OES
   35    34     1     0     0
SMALL
bcc


@<TRIPOS>ATOM
      1 C1          0.0630    0.0140   -0.0270 c3        1 OES     -0.093100
      2 C2          1.5660   -0.0740    0.0210 c3        1 OES     -0.080400
      3 C3          2.0830    0.0180    1.4410 c3        1 OES     -0.079400
      4 C4          3.5930   -0.0710    1.4840 c3        1 OES     -0.078400
      5 C5          4.1090    0.0230    2.9040 c3        1 OES     -0.079400
      6 C6          5.6190   -0.0690    2.9460 c3        1 OES     -0.075400
      7 C7          6.1330    0.0260    4.3670 c3        1 OES     -0.058400
      8 C8          7.6380   -0.0640    4.4150 c3        1 OES     -0.091100
      9 S2          8.1740    0.0900    6.0820 s4        1 OES      0.251600
     10 C22         9.8890    0.3290    5.7820 c3        1 OES     -0.102100
     11 C23        10.7190   -0.0720    6.9820 c3        1 OES      0.154400
     12 O2          8.0450   -1.2710    6.6780 o         1 OES     -0.503200
     13 O3         12.0810    0.1280    6.6350 oh        1 OES     -0.601800
     14 HC11       -0.2900    0.9820    0.4020 hc        1 OES      0.032700
     15 HC12       -0.2970   -0.0560   -1.0820 hc        1 OES      0.032700
     16 HC13       -0.3990   -0.8170    0.5580 hc        1 OES      0.032700
     17 HC21        1.9020   -1.0420   -0.4370 hc        1 OES      0.038200
     18 HC22        2.0120    0.7530   -0.5940 hc        1 OES      0.038200
     19 HC31        1.7500    0.9870    1.8990 hc        1 OES      0.039700
     20 HC32        1.6390   -0.8080    2.0560 hc        1 OES      0.039700
     21 HC41        4.0370    0.7540    0.8670 hc        1 OES      0.039700
     22 HC42        3.9260   -1.0410    1.0270 hc        1 OES      0.039700
     23 HC51        3.7770    0.9930    3.3610 hc        1 OES      0.041200
     24 HC52        3.6640   -0.8020    3.5210 hc        1 OES      0.041200
     25 HC61        6.0650    0.7540    2.3290 hc        1 OES      0.042700
     26 HC62        5.9500   -1.0400    2.4930 hc        1 OES      0.042700
     27 HC71        5.6900   -0.8040    4.9810 hc        1 OES      0.047700
     28 HC72        5.7950    0.9970    4.8190 hc        1 OES      0.047700
     29 HC81        7.9640   -1.0320    3.9570 h1        1 OES      0.086200
     30 HC82        8.0890    0.7530    3.8000 h1        1 OES      0.086200
     31 H221       10.2610   -0.2400    4.8930 h1        1 OES      0.093700
     32 H222       10.0600    1.4110    5.5560 h1        1 OES      0.093700
     33 H231       10.4670    0.5700    7.8710 h1        1 OES      0.037700
     34 H232       10.5300   -1.1490    7.2410 h1        1 OES      0.037700
     35 HO31       12.6050   -0.3010    7.3220 ho        1 OES      0.402000
@<TRIPOS>BOND
     1    1    2 1   
     2    1   14 1   
     3    1   15 1   
     4    1   16 1   
     5    2    3 1   
     6    2   17 1   
     7    2   18 1   
     8    3    4 1   
     9    3   19 1   
    10    3   20 1   
    11    4    5 1   
    12    4   21 1   
    13    4   22 1   
    14    5    6 1   
    15    5   23 1   
    16    5   24 1   
    17    6    7 1   
    18    6   25 1   
    19    6   26 1   
    20    7    8 1   
    21    7   27 1   
    22    7   28 1   
    23    8    9 1   
    24    8   29 1   
    25    8   30 1   
    26    9   10 1   
    27    9   12 2   
    28   10   11 1   
    29   10   31 1   
    30   10   32 1   
    31   11   13 1   
    32   11   33 1   
    33   11   34 1   
    34   13   35 1   
@<TRIPOS>SUBSTRUCTURE
     1 OES         1 TEMP              0 ****  ****    0 ROOT
