@<TRIPOS>MOLECULE
OEV
   49    49     1     0     0
SMALL
bcc


@<TRIPOS>ATOM
      1 C1           0.0000     0.0000     0.0000 c3         1 OEV       0.153700
      2 N1          -0.4870     0.2500    -1.3640 n7         1 OEV      -0.581200
      3 C2           1.5300     0.0000     0.0000 c3         1 OEV       0.170100
      4 O2           2.0100    -1.1700    -0.6660 oh         1 OEV      -0.588800
      5 C3           2.0140     0.0000     1.4550 c3         1 OEV       0.147100
      6 O3           3.4330    -0.1730     1.4890 oh         1 OEV      -0.590800
      7 C4           1.6400     1.3410     2.0900 c3         1 OEV       0.240300
      8 O4           1.8610     1.2760     3.5010 oh         1 OEV      -0.586800
      9 C5           0.1950     1.6510     1.8270 c2         1 OEV      -0.180400
     10 C6          -0.4670     2.7040     2.6780 c3         1 OEV       0.281600
     11 O6          -1.8300     2.8520     2.2760 oh         1 OEV      -0.596800
     12 C7          -0.5140     1.0730     0.9140 c2         1 OEV      -0.113200
     13 C8          -1.8310    -0.3110    -1.5530 c3         1 OEV       0.138800
     14 C9          -2.3030    -0.0320    -2.9820 c3         1 OEV      -0.029400
     15 C10         -3.7040    -0.6160    -3.1790 c3         1 OEV      -0.027400
     16 C11         -4.1750    -0.3380    -4.6080 c3         1 OEV      -0.028400
     17 C12         -5.5760    -0.9210    -4.8050 c3         1 OEV      -0.029400
     18 C13         -6.0480    -0.6430    -6.2340 c3         1 OEV      -0.030400
     19 C14         -7.4490    -1.2250    -6.4310 c3         1 OEV      -0.028400
     20 C15         -7.9210    -0.9480    -7.8600 c3         1 OEV       0.006900
     21 H1          -0.3570    -0.9630     0.3430 h1         1 OEV       0.031700
     22 H2           0.1420    -0.1630    -2.0240 hn         1 OEV       0.260800
     23 H3           1.8930     0.8880    -0.5040 h1         1 OEV       0.023700
     24 H4           2.7210    -0.9360    -1.2390 ho         1 OEV       0.399000
     25 H5           1.5320    -0.8040     1.9970 h1         1 OEV       0.028700
     26 H6           3.6450    -0.9260     2.0140 ho         1 OEV       0.400000
     27 H7           2.2560     2.1220     1.6620 h1         1 OEV       0.015700
     28 H8           2.6320     1.7730     3.7210 ho         1 OEV       0.393000
     29 H9          -0.4280     2.4050     3.7190 h1         1 OEV      -0.004300
     30 H10          0.0500     3.6470     2.5540 h1         1 OEV      -0.004300
     31 H11         -2.2440     3.5130     2.8070 ho         1 OEV       0.391000
     32 H12         -1.5470     1.3820     0.8030 ha         1 OEV       0.137000
     33 H13         -1.8030    -1.3810    -1.3840 h1         1 OEV       0.010700
     34 H14         -2.5160     0.1480    -0.8510 h1         1 OEV       0.010700
     35 H15         -2.3310     1.0370    -3.1510 hc         1 OEV       0.019200
     36 H16         -1.6190    -0.4920    -3.6850 hc         1 OEV       0.019200
     37 H17         -3.6770    -1.6860    -3.0090 hc         1 OEV       0.014700
     38 H18         -4.3890    -0.1560    -2.4770 hc         1 OEV       0.014700
     39 H19         -4.2030     0.7320    -4.7780 hc         1 OEV       0.015200
     40 H20         -5.5490    -1.9910    -4.6360 hc         1 OEV       0.014200
     41 H21         -6.0750     0.4270    -6.4030 hc         1 OEV       0.014700
     42 H22         -5.3640    -1.1020    -6.9370 hc         1 OEV       0.014700
     43 H23         -7.4220    -2.2950    -6.2610 hc         1 OEV       0.011700
     44 H24         -8.1330    -0.7650    -5.7290 hc         1 OEV       0.011700
     45 H25         -7.9470     0.1210    -8.0310 hc         1 OEV       0.000033
     46 H26         -7.2360    -1.4090    -8.5620 hc         1 OEV       0.000033
     47 H27         -8.9120    -1.3610    -7.9990 hc         1 OEV       0.000033
     48 H28         -3.4910    -0.7980    -5.3100 hc         1 OEV       0.015200
     49 H29         -6.2610    -0.4620    -4.1020 hc         1 OEV       0.014200
@<TRIPOS>BOND
     1     1     2 1   
     2     1     3 1   
     3     1    12 1   
     4     1    21 1   
     5     2    13 1   
     6     2    22 1   
     7     3     4 1   
     8     3     5 1   
     9     3    23 1   
    10     4    24 1   
    11     5     6 1   
    12     5     7 1   
    13     5    25 1   
    14     6    26 1   
    15     7     8 1   
    16     7     9 1   
    17     7    27 1   
    18     8    28 1   
    19     9    10 1   
    20     9    12 2   
    21    10    11 1   
    22    10    29 1   
    23    10    30 1   
    24    11    31 1   
    25    12    32 1   
    26    13    14 1   
    27    13    33 1   
    28    13    34 1   
    29    14    15 1   
    30    14    35 1   
    31    14    36 1   
    32    15    16 1   
    33    15    37 1   
    34    15    38 1   
    35    16    17 1   
    36    16    39 1   
    37    16    48 1   
    38    17    18 1   
    39    17    40 1   
    40    17    49 1   
    41    18    19 1   
    42    18    41 1   
    43    18    42 1   
    44    19    20 1   
    45    19    43 1   
    46    19    44 1   
    47    20    45 1   
    48    20    46 1   
    49    20    47 1   
@<TRIPOS>SUBSTRUCTURE
     1 OEV         1 TEMP              0 ****  ****    0 ROOT
