@<TRIPOS>MOLECULE
molecule
   49    49     1     0     0
SMALL
bcc


@<TRIPOS>ATOM
      1 C1           0.0000     0.0000     0.0000 c3         1 OEV       0.193700
      2 N1          -0.4870     0.2500    -1.3640 n7         1 OEV      -0.813200
      3 C2           1.5300     0.0000     0.0000 c3         1 OEV       0.133100
      4 O2           2.0100    -1.1700    -0.6660 oh         1 OEV      -0.607800
      5 C3           2.0140     0.0000     1.4550 c3         1 OEV       0.117100
      6 O3           3.4330    -0.1730     1.4890 oh         1 OEV      -0.609800
      7 C4           1.6400     1.3410     2.0900 c3         1 OEV       0.182300
      8 O4           1.8610     1.2760     3.5010 oh         1 OEV      -0.604800
      9 C5           0.1950     1.6510     1.8270 c2         1 OEV      -0.150400
     10 C6          -0.4670     2.7040     2.6780 c3         1 OEV       0.186600
     11 O6          -1.8300     2.8520     2.2760 oh         1 OEV      -0.615800
     12 C7          -0.5140     1.0730     0.9140 c2         1 OEV      -0.115200
     13 C8          -1.8310    -0.3110    -1.5530 c3         1 OEV       0.154800
     14 C9          -2.3030    -0.0320    -2.9820 c3         1 OEV      -0.082400
     15 C10         -3.7040    -0.6160    -3.1790 c3         1 OEV      -0.082400
     16 C11         -4.1750    -0.3380    -4.6080 c3         1 OEV      -0.080400
     17 C12         -5.5760    -0.9210    -4.8050 c3         1 OEV      -0.082400
     18 C13         -6.0480    -0.6430    -6.2340 c3         1 OEV      -0.081400
     19 C14         -7.4490    -1.2250    -6.4310 c3         1 OEV      -0.084400
     20 C15         -7.9210    -0.9480    -7.8600 c3         1 OEV      -0.092100
     21 H1          -0.3570    -0.9630     0.3430 h1         1 OEV       0.053700
     22 H2           0.1420    -0.1630    -2.0240 hn         1 OEV       0.359800
     23 H3           1.8930     0.8880    -0.5040 h1         1 OEV       0.058700
     24 H4           2.7210    -0.9360    -1.2390 ho         1 OEV       0.412000
     25 H5           1.5320    -0.8040     1.9970 h1         1 OEV       0.063700
     26 H6           3.6450    -0.9260     2.0140 ho         1 OEV       0.413000
     27 H7           2.2560     2.1220     1.6620 h1         1 OEV       0.052700
     28 H8           2.6320     1.7730     3.7210 ho         1 OEV       0.407000
     29 H9          -0.4280     2.4050     3.7190 h1         1 OEV       0.034200
     30 H10          0.0500     3.6470     2.5540 h1         1 OEV       0.034200
     31 H11         -2.2440     3.5130     2.8070 ho         1 OEV       0.405000
     32 H12         -1.5470     1.3820     0.8030 ha         1 OEV       0.164000
     33 H13         -1.8030    -1.3810    -1.3840 h1         1 OEV       0.035700
     34 H14         -2.5160     0.1480    -0.8510 h1         1 OEV       0.035700
     35 H15         -2.3310     1.0370    -3.1510 hc         1 OEV       0.047700
     36 H16         -1.6190    -0.4920    -3.6850 hc         1 OEV       0.047700
     37 H17         -3.6770    -1.6860    -3.0090 hc         1 OEV       0.041700
     38 H18         -4.3890    -0.1560    -2.4770 hc         1 OEV       0.041700
     39 H19         -4.2030     0.7320    -4.7780 hc         1 OEV       0.041700
     40 H20         -5.5490    -1.9910    -4.6360 hc         1 OEV       0.041200
     41 H21         -6.0750     0.4270    -6.4030 hc         1 OEV       0.041200
     42 H22         -5.3640    -1.1020    -6.9370 hc         1 OEV       0.041200
     43 H23         -7.4220    -2.2950    -6.2610 hc         1 OEV       0.039700
     44 H24         -8.1330    -0.7650    -5.7290 hc         1 OEV       0.039700
     45 H25         -7.9470     0.1210    -8.0310 hc         1 OEV       0.032367
     46 H26         -7.2360    -1.4090    -8.5620 hc         1 OEV       0.032367
     47 H27         -8.9120    -1.3610    -7.9990 hc         1 OEV       0.032367
     48 H28         -3.4910    -0.7980    -5.3100 hc         1 OEV       0.041700
     49 H29         -6.2610    -0.4620    -4.1020 hc         1 OEV       0.041200
@<TRIPOS>BOND
     1     1     2 1
     2     1    21 1
     3     2    13 1
     4     2    22 1
     5     3     1 1
     6     3     4 1
     7     3    23 1
     8     4    24 1
     9     5     3 1
    10     5    25 1
    11     6     5 1
    12     6    26 1
    13     7     5 1
    14     7     9 1
    15     7    27 1
    16     8     7 1
    17     8    28 1
    18     9    12 2
    19    10     9 1
    20    10    11 1
    21    10    29 1
    22    10    30 1
    23    11    31 1
    24    12     1 1
    25    12    32 1
    26    13    14 1
    27    13    33 1
    28    13    34 1
    29    14    15 1
    30    14    35 1
    31    14    36 1
    32    15    37 1
    33    15    38 1
    34    16    15 1
    35    16    39 1
    36    17    16 1
    37    17    40 1
    38    18    17 1
    39    18    41 1
    40    18    42 1
    41    19    18 1
    42    19    43 1
    43    19    44 1
    44    20    19 1
    45    20    45 1
    46    20    46 1
    47    20    47 1
    48    16    48 1
    49    17    49 1
@<TRIPOS>SUBSTRUCTURE
     1 OEV         1 TEMP              0 ****  ****    0 ROOT
