@<TRIPOS>MOLECULE
molecule
   51    55     1     0     0
SMALL
bcc


@<TRIPOS>ATOM
      1 C01          0.0000     0.0000     0.0000 ca         1 OFB       0.111100
      2 C02          1.3890     0.0000     0.0000 ca         1 OFB      -0.152000
      3 C03          2.0810     0.0000     1.1910 ca         1 OFB      -0.098000
      4 C04          1.3820    -0.0020     2.4030 ca         1 OFB      -0.051800
      5 C05         -0.0160    -0.0020     2.3970 ca         1 OFB      -0.098000
      6 C06         -0.6990     0.0040     1.2010 ca         1 OFB      -0.152000
      7 O01         -0.6770    -0.0000    -1.1770 oh         1 OFB      -0.521100
      8 C07          2.1170    -0.0030     3.6800 ce         1 OFB      -0.084400
      9 C08          2.9210     0.9770     4.1600 cf         1 OFB      -0.082400
     10 C09          3.4320     0.4770     5.5140 c3         1 OFB       0.198300
     11 C10          3.2370     2.2620     3.5120 ca         1 OFB      -0.053800
     12 C11          4.5440     2.5360     3.0990 ca         1 OFB      -0.096500
     13 C12          4.8350     3.7390     2.4920 ca         1 OFB      -0.153000
     14 C13          3.8330     4.6790     2.2930 ca         1 OFB       0.113100
     15 C14          2.5330     4.4120     2.7010 ca         1 OFB      -0.153000
     16 C15          2.2310     3.2100     3.3030 ca         1 OFB      -0.096500
     17 O02          4.1250     5.8630     1.6940 oh         1 OFB      -0.521100
     18 C16          2.1250    -1.1100     4.7380 c3         1 OFB       0.171300
     19 C17          1.2650    -0.5530     5.9150 c3         1 OFB      -0.071400
     20 C18          2.2060     0.5670     6.4750 c3         1 OFB      -0.271900
     21 O03          3.4900    -0.9670     5.2650 os         1 OFB      -0.377600
     22 S01          2.6780     0.2180     8.1910 s6         1 OFB       1.455500
     23 O04          1.3570     0.1590     8.9440 os         1 OFB      -0.450800
     24 O05          3.2070    -1.0960     8.3060 o          1 OFB      -0.610300
     25 O06          3.3550     1.3310     8.7590 o          1 OFB      -0.610300
     26 C19          0.7860     1.3730     9.1550 ca         1 OFB       0.117100
     27 C20          1.1000     2.1000    10.2940 ca         1 OFB      -0.135000
     28 C21          0.5220     3.3390    10.5040 ca         1 OFB       0.153900
     29 C22         -0.3700     3.8520     9.5780 ca         1 OFB      -0.157000
     30 C23         -0.6840     3.1290     8.4430 ca         1 OFB      -0.090000
     31 C24         -0.1080     1.8920     8.2300 ca         1 OFB      -0.166000
     32 F01          0.8270     4.0480    11.6130 f          1 OFB      -0.127900
     33 H1           1.9300    -0.0010    -0.9390 ha         1 OFB       0.143500
     34 H2           3.1640     0.0000     1.1900 ha         1 OFB       0.137500
     35 H3          -0.5610    -0.0010     3.3330 ha         1 OFB       0.137500
     36 H4          -1.7820     0.0040     1.1970 ha         1 OFB       0.143500
     37 H5          -0.8350    -0.8890    -1.4490 ho         1 OFB       0.421000
     38 H6           4.3500     0.9280     5.8720 h1         1 OFB       0.115700
     39 H7           5.3270     1.8030     3.2550 ha         1 OFB       0.138500
     40 H8           5.8480     3.9510     2.1720 ha         1 OFB       0.143500
     41 H9           1.7540     5.1470     2.5410 ha         1 OFB       0.143500
     42 H10          1.2160     3.0030     3.6220 ha         1 OFB       0.138500
     43 H11          4.3690     6.4950     2.3500 ho         1 OFB       0.421000
     44 H12          1.8620    -2.1010     4.3860 h1         1 OFB       0.114700
     45 H13          0.3350    -0.1330     5.5520 hc         1 OFB       0.066700
     46 H14          1.0850    -1.3180     6.6600 hc         1 OFB       0.066700
     47 H15          1.7310     1.5370     6.3980 h1         1 OFB       0.112700
     48 H16          1.7980     1.6980    11.0180 ha         1 OFB       0.172000
     49 H17         -0.8230     4.8230     9.7430 ha         1 OFB       0.153000
     50 H18         -1.3820     3.5330     7.7200 ha         1 OFB       0.147000
     51 H19         -0.3560     1.3260     7.3400 ha         1 OFB       0.144000
@<TRIPOS>BOND
     1    32    28 1
     2    28    29 ar
     3    28    27 ar
     4    29    30 ar
     5    27    26 ar
     6    30    31 ar
     7    26    31 ar
     8    26    23 1
     9    25    22 2
    10    23    22 1
    11    22    24 2
    12    22    20 1
    13    20    19 1
    14    20    10 1
    15    19    18 1
    16    10    21 1
    17    10     9 1
    18    13    12 ar
    19    13    14 ar
    20    21    18 1
    21    17    14 1
    22    12    11 ar
    23    14    15 ar
    24    15    16 ar
    25    11     9 1
    26    11    16 ar
    27    18     8 1
    28     9     8 2
    29     8     4 1
    30     4     3 ar
    31     4     5 ar
    32     3     2 ar
    33     5     6 ar
    34     2     1 ar
    35     6     1 ar
    36     1     7 1
    37     2    33 1
    38     3    34 1
    39     5    35 1
    40     6    36 1
    41     7    37 1
    42    10    38 1
    43    12    39 1
    44    13    40 1
    45    15    41 1
    46    16    42 1
    47    17    43 1
    48    18    44 1
    49    19    45 1
    50    19    46 1
    51    20    47 1
    52    27    48 1
    53    29    49 1
    54    30    50 1
    55    31    51 1
@<TRIPOS>SUBSTRUCTURE
     1 OFB         1 TEMP              0 ****  ****    0 ROOT
