@<TRIPOS>MOLECULE
molecule
   51    52     1     0     0
SMALL
bcc


@<TRIPOS>ATOM
      1 C19          0.0000     0.0000     0.0000 ca         1 OFF      -0.107000
      2 C20          1.3950     0.0000     0.0000 ca         1 OFF      -0.158000
      3 C21          2.0910     0.0000     1.2090 ca         1 OFF       0.072100
      4 O10          3.4520     0.0000     1.2100 oh         1 OFF      -0.535100
      5 C22          1.3930    -0.0010     2.4170 ca         1 OFF      -0.158000
      6 C23         -0.0020     0.0000     2.4160 ca         1 OFF      -0.107000
      7 C18         -0.6790    -0.0000     1.2080 ca         1 OFF      -0.031800
      8 C17         -2.1520    -0.0010     1.2070 ce         1 OFF      -0.134200
      9 C16         -2.9130    -0.3790     0.1690 cf         1 OFF      -0.126200
     10 C15         -4.3880    -0.3440     0.2950 c          1 OFF       0.658300
     11 O9          -5.0060     0.0160     1.2840 o          1 OFF      -0.561000
     12 O8          -4.9120    -0.7840    -0.8810 os         1 OFF      -0.348900
     13 C12         -6.3410    -0.8170    -0.9440 c3         1 OFF       0.175100
     14 C13         -6.7300    -1.2540    -2.3570 c3         1 OFF      -0.169400
     15 C14         -6.1160    -0.3980    -3.4410 c          1 OFF       0.897600
     16 O6          -5.8920    -1.1120    -4.5740 o          1 OFF      -0.872800
     17 O7          -5.8220     0.7850    -3.3290 o          1 OFF      -0.872800
     18 C10         -6.8880    -1.7010     0.1870 c3         1 OFF      -0.008900
     19 C11         -6.4880    -3.1600     0.0680 c          1 OFF       0.888600
     20 O4          -5.3890    -3.4570     0.8060 o          1 OFF      -0.839300
     21 O5          -7.0710    -3.9860    -0.6220 o          1 OFF      -0.839300
     22 O3          -8.3120    -1.6620     0.1090 os         1 OFF      -0.403900
     23 C9          -8.9730    -2.4020     1.0430 c          1 OFF       0.641300
     24 O2          -8.4730    -3.0840     1.9230 o          1 OFF      -0.508000
     25 C8         -10.4250    -2.2390     0.8040 ce         1 OFF      -0.145200
     26 C7         -11.3000    -2.8640     1.6040 cf         1 OFF      -0.130200
     27 C4         -12.7660    -2.7730     1.4740 ca         1 OFF      -0.037800
     28 C5         -13.3160    -2.3650     0.2700 ca         1 OFF      -0.107500
     29 C6         -14.7020    -2.2780     0.1480 ca         1 OFF      -0.157000
     30 C1         -15.5200    -2.6000     1.2310 ca         1 OFF       0.076100
     31 O1         -16.8730    -2.5140     1.1110 oh         1 OFF      -0.531100
     32 C2         -14.9510    -3.0080     2.4370 ca         1 OFF      -0.157000
     33 C3         -13.5640    -3.0960     2.5590 ca         1 OFF      -0.107500
     34 H19         -0.5470    -0.0000    -0.9350 ha         1 OFF       0.147500
     35 H20          1.9370     0.0000    -0.9380 ha         1 OFF       0.127000
     36 HO10         3.7670    -0.8890     1.2090 ho         1 OFF       0.407000
     37 H22          1.9350    -0.0000     3.3550 ha         1 OFF       0.127000
     38 H23         -0.5500    -0.0000     3.3500 ha         1 OFF       0.147500
     39 H171        -2.6490     0.3210     2.1140 ha         1 OFF       0.141000
     40 H161        -2.4510    -0.7130    -0.7520 ha         1 OFF       0.153000
     41 H12         -6.7090     0.1900    -0.7900 h1         1 OFF       0.035700
     42 H131        -7.8080    -1.2100    -2.4490 hc         1 OFF       0.065200
     43 H132        -6.4110    -2.2790    -2.5030 hc         1 OFF       0.065200
     44 H10         -6.5640    -1.3110     1.1440 h1         1 OFF       0.083700
     45 H81        -10.7780    -1.6130    -0.0060 ha         1 OFF       0.141000
     46 H71        -10.9110    -3.4760     2.4090 ha         1 OFF       0.146000
     47 H5         -12.6760    -2.1160    -0.5680 ha         1 OFF       0.146000
     48 H6         -15.1440    -1.9610    -0.7890 ha         1 OFF       0.129000
     49 HO1        -17.2150    -3.3400     0.8120 ho         1 OFF       0.407000
     50 H2         -15.5850    -3.2590     3.2780 ha         1 OFF       0.129000
     51 H3         -13.1160    -3.4120     3.4930 ha         1 OFF       0.146000
@<TRIPOS>BOND
     1     1     7 ar
     2     1     2 ar
     3     1    34 1
     4     2     3 ar
     5     2    35 1
     6     3     5 ar
     7     3     4 1
     8     4    36 1
     9     5     6 ar
    10     5    37 1
    11     6     7 ar
    12     6    38 1
    13     7     8 1
    14     8     9 2
    15     8    39 1
    16     9    10 1
    17     9    40 1
    18    10    11 2
    19    10    12 1
    20    12    13 1
    21    13    14 1
    22    13    18 1
    23    13    41 1
    24    14    15 1
    25    14    42 1
    26    14    43 1
    27    15    17 1
    28    15    16 1
    29    18    19 1
    30    18    22 1
    31    18    44 1
    32    19    21 1
    33    19    20 1
    34    22    23 1
    35    23    25 1
    36    23    24 2
    37    25    26 2
    38    25    45 1
    39    26    27 1
    40    26    46 1
    41    27    33 ar
    42    27    28 ar
    43    28    29 ar
    44    28    47 1
    45    29    30 ar
    46    29    48 1
    47    30    32 ar
    48    30    31 1
    49    31    49 1
    50    32    33 ar
    51    32    50 1
    52    33    51 1
@<TRIPOS>SUBSTRUCTURE
     1 OFF         1 TEMP              0 ****  ****    0 ROOT
