@<TRIPOS>MOLECULE
OFF
   51    52     1     0     0
SMALL
bcc


@<TRIPOS>ATOM
      1 C19        -0.5480   -1.2230    1.2310 ca        1 OFF     -0.094500
      2 C20         0.7830   -1.5940    1.3920 ca        1 OFF     -0.187500
      3 C21         1.7710   -0.6040    1.4600 ca        1 OFF      0.090100
      4 O10         3.1110   -0.9030    1.6230 oh        1 OFF     -0.517100
      5 C22         1.4330    0.7540    1.3710 ca        1 OFF     -0.187500
      6 C23         0.0970    1.1070    1.2110 ca        1 OFF     -0.094500
      7 C18        -0.9100    0.1300    1.1360 ca        1 OFF     -0.044800
      8 C17        -2.2940    0.5430    0.9760 ce        1 OFF     -0.147200
      9 C16        -3.2920   -0.2740    0.6200 cf        1 OFF     -0.108200
     10 C15        -4.6980    0.1750    0.5100 c         1 OFF      0.656300
     11 O9         -5.3170    0.8660    1.3290 o         1 OFF     -0.579000
     12 O8         -5.2820   -0.2690   -0.6280 os        1 OFF     -0.394900
     13 C12        -6.7310   -0.3220   -0.6790 c3        1 OFF      0.185100
     14 C13        -7.0610   -0.5860   -2.1380 c3        1 OFF     -0.188400
     15 C14        -7.3150    0.6860   -2.9590 c         1 OFF      0.908600
     16 O6         -7.2790    0.5770   -4.2230 o         1 OFF     -0.866300
     17 O7         -7.5750    1.7800   -2.3760 o         1 OFF     -0.866300
     18 C10        -7.1890   -1.4010    0.3210 c3        1 OFF      0.006100
     19 C11        -6.3310   -2.6890    0.4090 c         1 OFF      0.916600
     20 O4         -5.0980   -2.6060    0.6630 o         1 OFF     -0.845800
     21 O5         -6.9580   -3.7870    0.2890 o         1 OFF     -0.845800
     22 O3         -8.5230   -1.7820   -0.0790 os        1 OFF     -0.424900
     23 C9         -9.1060   -2.7610    0.6800 c         1 OFF      0.689300
     24 O2         -9.0770   -2.6800    1.9140 o         1 OFF     -0.582000
     25 C8         -9.7930   -3.7820   -0.1360 ce        1 OFF     -0.110200
     26 C7        -11.0980   -4.0510   -0.2250 cf        1 OFF     -0.145200
     27 C4        -12.2130   -3.4140    0.4570 ca        1 OFF     -0.055800
     28 C5        -13.4230   -3.2500   -0.2350 ca        1 OFF     -0.090000
     29 C6        -14.5310   -2.6840    0.3870 ca        1 OFF     -0.188500
     30 C1        -14.4320   -2.2790    1.7240 ca        1 OFF      0.095100
     31 O1        -15.5010   -1.7340    2.4100 oh        1 OFF     -0.515100
     32 C2        -13.2320   -2.4300    2.4330 ca        1 OFF     -0.188500
     33 C3        -12.1320   -2.9950    1.7950 ca        1 OFF     -0.090000
     34 H19        -1.3290   -2.0010    1.1810 ha        1 OFF      0.148000
     35 H20         1.0560   -2.6560    1.4630 ha        1 OFF      0.127500
     36 HO10        3.1890   -1.8670    1.6390 ho        1 OFF      0.407000
     37 H22         2.2210    1.5160    1.4260 ha        1 OFF      0.127500
     38 H23        -0.1760    2.1710    1.1370 ha        1 OFF      0.148000
     39 H171       -2.4940    1.6130    1.1670 ha        1 OFF      0.129000
     40 H161       -3.1880   -1.3550    0.4010 ha        1 OFF      0.194000
     41 H12        -7.1420    0.6800   -0.3670 h1        1 OFF      0.094700
     42 H131       -7.9890   -1.2110   -2.1900 hc        1 OFF      0.055200
     43 H132       -6.2290   -1.1610   -2.6170 hc        1 OFF      0.055200
     44 H10        -7.2370   -0.9460    1.3480 h1        1 OFF      0.058700
     45 H81        -9.0450   -4.3550   -0.7240 ha        1 OFF      0.186000
     46 H71       -11.4130   -4.8530   -0.9210 ha        1 OFF      0.108000
     47 H5        -13.4910   -3.5620   -1.2880 ha        1 OFF      0.157000
     48 H6        -15.4700   -2.5460   -0.1660 ha        1 OFF      0.127500
     49 HO1       -16.1890   -1.5380    1.7600 ho        1 OFF      0.403000
     50 H2        -13.1680   -2.0940    3.4760 ha        1 OFF      0.127500
     51 H3        -11.1730   -3.0990    2.3380 ha        1 OFF      0.157000
@<TRIPOS>BOND
     1    1    2 ar  
     2    1    7 ar  
     3    1   34 1   
     4    2    3 ar  
     5    2   35 1   
     6    3    4 1   
     7    3    5 ar  
     8    4   36 1   
     9    5    6 ar  
    10    5   37 1   
    11    6    7 ar  
    12    6   38 1   
    13    7    8 1   
    14    8    9 2   
    15    8   39 1   
    16    9   10 1   
    17    9   40 1   
    18   10   11 2   
    19   10   12 1   
    20   12   13 1   
    21   13   14 1   
    22   13   18 1   
    23   13   41 1   
    24   14   15 1   
    25   14   42 1   
    26   14   43 1   
    27   15   16 1   
    28   15   17 1   
    29   18   19 1   
    30   18   22 1   
    31   18   44 1   
    32   19   20 1   
    33   19   21 1   
    34   22   23 1   
    35   23   24 2   
    36   23   25 1   
    37   25   26 2   
    38   25   45 1   
    39   26   27 1   
    40   26   46 1   
    41   27   28 ar  
    42   27   33 ar  
    43   28   29 ar  
    44   28   47 1   
    45   29   30 ar  
    46   29   48 1   
    47   30   31 1   
    48   30   32 ar  
    49   31   49 1   
    50   32   33 ar  
    51   32   50 1   
    52   33   51 1   
@<TRIPOS>SUBSTRUCTURE
     1 OFF         1 TEMP              0 ****  ****    0 ROOT
