@<TRIPOS>MOLECULE
molecule
   46    49     1     0     0
SMALL
bcc


@<TRIPOS>ATOM
      1 C13          0.0000     0.0000     0.0000 ca         1 OFG      -0.078000
      2 C14          1.3810     0.0000     0.0000 ca         1 OFG      -0.164000
      3 C6          -1.9240     1.0380     5.9240 ca         1 OFG      -0.141000
      4 C16          1.3860    -0.0000     2.4000 ca         1 OFG      -0.140000
      5 C26         -4.0890     0.5320     1.6630 cc         1 OFG       0.199900
      6 C27         -4.0910    -0.5290     0.7550 cc         1 OFG       0.199900
      7 C4          -1.7270     2.2580     7.9880 ca         1 OFG       0.440200
      8 C19         -4.9340     1.9150     6.2820 cc         1 OFG      -0.104300
      9 C5          -2.5260     1.6260     7.0420 ca         1 OFG      -0.146300
     10 C18         -4.0010     1.5750     7.2160 cd         1 OFG      -0.252300
     11 C10          0.0040     0.0010     2.4040 ca         1 OFG      -0.034300
     12 C12         -0.6920     0.0000     1.2030 ca         1 OFG       0.009800
     13 C1          -0.5460     1.1110     5.8050 ca         1 OFG      -0.044200
     14 C15          2.0750     0.0000     1.1980 ca         1 OFG       0.145900
     15 C22         -4.6870     1.1680     8.3760 cd         1 OFG       0.354600
     16 C2           0.1880     1.7640     6.7970 ca         1 OFG       0.688200
     17 C23         -4.0540     0.7040     9.6630 c3         1 OFG      -0.111400
     18 C11         -1.1230    -1.4350     4.0820 c3         1 OFG      -0.118100
     19 C9          -0.7450     0.0000     3.7110 c3         1 OFG       0.174400
     20 N3          -0.4160     2.3080     7.8400 nb         1 OFG      -0.735000
     21 N25         -2.8240     0.8040     1.8960 nd         1 OFG      -0.533300
     22 N28         -2.8270    -0.8030     0.5190 nd         1 OFG      -0.533300
     23 N20         -6.1510     1.7290     6.8340 na         1 OFG      -0.045600
     24 N21         -5.9700     1.2610     8.1420 nc         1 OFG      -0.513800
     25 N24         -2.0950     0.0000     1.2060 na         1 OFG       0.386800
     26 N8           1.5750     1.8430     6.6870 nv         1 OFG      -1.011500
     27 O7           0.0840     0.5550     4.7350 os         1 OFG      -0.336900
     28 F17          3.4260    -0.0010     1.1960 f          1 OFG      -0.131900
     29 H13         -0.5420    -0.0000    -0.9380 ha         1 OFG       0.160000
     30 H14          1.9220     0.0000    -0.9390 ha         1 OFG       0.156000
     31 H6          -2.5200     0.5390     5.1710 ha         1 OFG       0.148000
     32 H16          1.9300     0.0000     3.3360 ha         1 OFG       0.168000
     33 H26         -4.9520     1.0280     2.0890 h4         1 OFG       0.059600
     34 H27         -4.9560    -1.0240     0.3310 h4         1 OFG       0.059600
     35 H4          -2.1860     2.7160     8.8560 h4         1 OFG       0.029100
     36 H20         -7.0300     1.8950     6.3870 hn         1 OFG       0.328700
     37 H9          -1.6440     0.5970     3.6120 h1         1 OFG       0.093700
     38 H231        -4.8010     0.2160    10.2770 hc         1 OFG       0.052367
     39 H232        -3.6510     1.5580    10.1950 hc         1 OFG       0.052367
     40 H233        -3.2560     0.0060     9.4420 hc         1 OFG       0.052367
     41 H81N         2.0550     1.2810     6.0130 hn         1 OFG       0.442300
     42 H82N         2.0940     2.4190     7.3200 hn         1 OFG       0.442300
     43 H111        -0.9220    -2.0890     3.2430 hc         1 OFG       0.052367
     44 H112        -2.1770    -1.4780     4.3300 hc         1 OFG       0.052367
     45 H113        -0.5380    -1.7530     4.9360 hc         1 OFG       0.052367
     46 H19         -4.7350     2.2710     5.2780 h4         1 OFG       0.173000
@<TRIPOS>BOND
     1     1     2 ar
     2     1    12 ar
     3     2    14 ar
     4     3     9 ar
     5     3    13 ar
     6     4    11 ar
     7     4    14 ar
     8     5     6 1
     9     5    21 2
    10     6    22 2
    11     7     9 ar
    12     7    20 ar
    13     8    10 2
    14     8    23 1
    15     9    10 1
    16    10    15 1
    17    11    12 ar
    18    11    19 1
    19    12    25 1
    20    13    16 ar
    21    13    27 1
    22    14    28 1
    23    15    17 1
    24    15    24 2
    25    16    20 ar
    26    16    26 1
    27    18    19 1
    28    19    27 1
    29    21    25 1
    30    22    25 1
    31    23    24 1
    32     1    29 1
    33     2    30 1
    34     3    31 1
    35     4    32 1
    36     5    33 1
    37     6    34 1
    38     7    35 1
    39     8    46 1
    40    23    36 1
    41    19    37 1
    42    17    38 1
    43    17    39 1
    44    17    40 1
    45    26    41 1
    46    26    42 1
    47    18    43 1
    48    18    44 1
    49    18    45 1
@<TRIPOS>SUBSTRUCTURE
     1 OFG         1 TEMP              0 ****  ****    0 ROOT
