@<TRIPOS>MOLECULE
OFH
   63    66     1     0     0
SMALL
bcc


@<TRIPOS>ATOM
      1 C1           0.0000     0.0000     0.0000 cx         1 OFH      -0.310000
      2 S2           0.9630     1.7260    -5.3430 sy         1 OFH       0.887300
      3 N3          -0.5030     1.7890    -1.6330 n          1 OFH      -0.130800
      4 C4          -0.6950     1.2760    -0.4020 c          1 OFH       0.656100
      5 C5          -0.2760     1.7590    -4.0190 c3         1 OFH      -0.036900
      6 C6           1.3240     0.0160    -5.5640 ca         1 OFH      -0.195500
      7 C7          -1.0540     3.0590    -2.1280 c3         1 OFH      -0.035300
      8 C8          -0.7060    -1.2940    -0.4080 c3         1 OFH       0.628900
      9 C9           0.2980     1.1710    -2.7070 c3         1 OFH       0.049000
     10 C10         -0.5920     3.2190    -3.5920 c3         1 OFH       0.010600
     11 C11          1.5300     0.0000     0.0000 cx         1 OFH      -0.025900
     12 C12          0.7640     0.0000     1.3260 cx         1 OFH      -0.025900
     13 C13         -2.5590     3.0250    -2.0650 c          1 OFH       0.547100
     14 C14         -4.7380     4.0590    -2.4110 cx         1 OFH      -0.167900
     15 C15          3.8540    -5.6990    -6.3730 c3         1 OFH       0.576900
     16 C16          0.4070    -0.8080    -6.1930 ca         1 OFH       0.083400
     17 N17         -3.2740     4.0910    -2.4720 ns         1 OFH      -0.145900
     18 C18         -5.3230     3.2920    -1.2530 c2         1 OFH       0.425200
     19 N19         -4.6480     3.1460    -0.1750 n2         1 OFH      -0.593100
     20 C20          2.5250    -0.5010    -5.1140 ca         1 OFH       0.060000
     21 C21          0.6880    -2.1520    -6.3670 ca         1 OFH      -0.159000
     22 O23          2.1890     2.2870    -4.8940 o          1 OFH      -0.576800
     23 C24         -5.4930     5.3010    -2.8890 cx         1 OFH      -0.065900
     24 C25         -5.4990     4.0270    -3.7370 cx         1 OFH      -0.065900
     25 C26          3.4270    -4.4560    -5.5900 c3         1 OFH       0.102100
     26 O27         -1.4270     1.8400     0.3820 o          1 OFH      -0.588100
     27 C29          1.8910    -2.6710    -5.9110 ca         1 OFH       0.210100
     28 O30         -3.1260     2.0380    -1.6490 o          1 OFH      -0.601100
     29 F31         -0.7030    -1.4080    -1.8030 f          1 OFH      -0.201967
     30 F32         -0.0370    -2.3870     0.1510 f          1 OFH      -0.201967
     31 F33         -2.0260    -1.2690     0.0540 f          1 OFH      -0.201967
     32 F35          5.0850    -6.1560    -5.8910 f          1 OFH      -0.199633
     33 F36          2.8910    -6.7020    -6.2150 f          1 OFH      -0.199633
     34 Cl          -1.0980    -0.1570    -6.7620 cl         1 OFH       0.030600
     35 C38          2.8110    -1.8410    -5.2860 ca         1 OFH      -0.248000
     36 C39          3.2960    -4.8080    -4.1060 c3         1 OFH      -0.031100
     37 H5          -1.1800     1.2390    -4.3110 h1         1 OFH       0.098700
     38 H7          -0.6730     3.8800    -1.5330 h1         1 OFH       0.047700
     39 H9           0.1770     0.0940    -2.6930 h1         1 OFH       0.044200
     40 H9A          1.3420     1.4410    -2.5990 h1         1 OFH       0.044200
     41 H10          0.2980     3.8330    -3.6460 hc         1 OFH       0.039200
     42 H10A        -1.3880     3.6310    -4.2000 hc         1 OFH       0.039200
     43 H11          1.9980     0.9390    -0.2700 hc         1 OFH       0.059950
     44 H11A         1.9980    -0.9390    -0.2690 hc         1 OFH       0.059950
     45 H12          0.7640     0.9390     1.8650 hc         1 OFH       0.059950
     46 H12A         0.7640    -0.9390     1.8650 hc         1 OFH       0.059950
     47 HN17        -2.8050     4.9140    -2.7970 hn         1 OFH       0.172500
     48 H18         -6.3150     2.8630    -1.3330 h4         1 OFH      -0.006200
     49 HN19        -3.7320     3.5420    -0.1020 hn         1 OFH       0.325400
     50 H20          3.2440     0.1460    -4.6260 ha         1 OFH       0.131000
     51 H21         -0.0300    -2.7970    -6.8590 ha         1 OFH       0.138000
     52 H24         -6.4160     5.5180    -2.3650 hc         1 OFH       0.051450
     53 H24A        -4.8750     6.1090    -3.2630 hc         1 OFH       0.051450
     54 H25         -6.4260     3.4660    -3.7310 hc         1 OFH       0.051450
     55 H25A        -4.8850     4.0560    -4.6290 hc         1 OFH       0.051450
     56 H26          4.1730    -3.6790    -5.7120 h1         1 OFH       0.057700
     57 H38          3.7510    -2.2440    -4.9310 ha         1 OFH       0.130000
     58 H39          3.6780    -5.8080    -3.9370 hc         1 OFH       0.029033
     59 H39A         3.8650    -4.1000    -3.5150 hc         1 OFH       0.029033
     60 H39B         2.2530    -4.7650    -3.8160 hc         1 OFH       0.029033
     61 O22          0.3850     2.1250    -6.5780 o          1 OFH      -0.576800
     62 O28          2.1690    -3.9900    -6.0820 os         1 OFH      -0.276900
     63 F34          3.9730    -5.3770    -7.7290 f          1 OFH      -0.199633
@<TRIPOS>BOND
     1     1     4 1   
     2     1     8 1   
     3     1    11 1   
     4     1    12 1   
     5     2     5 1   
     6     2     6 1   
     7     2    22 2   
     8     2    61 2   
     9     3     4 1   
    10     3     7 1   
    11     3     9 1   
    12     4    26 2   
    13     5     9 1   
    14     5    10 1   
    15     5    37 1   
    16     6    16 ar  
    17     6    20 ar  
    18     7    10 1   
    19     7    13 1   
    20     7    38 1   
    21     8    29 1   
    22     8    30 1   
    23     8    31 1   
    24     9    39 1   
    25     9    40 1   
    26    10    41 1   
    27    10    42 1   
    28    11    12 1   
    29    11    43 1   
    30    11    44 1   
    31    12    45 1   
    32    12    46 1   
    33    13    17 1   
    34    13    28 2   
    35    14    17 1   
    36    14    18 1   
    37    14    23 1   
    38    14    24 1   
    39    15    25 1   
    40    15    32 1   
    41    15    33 1   
    42    15    63 1   
    43    16    21 ar  
    44    16    34 1   
    45    17    47 1   
    46    18    19 2   
    47    18    48 1   
    48    19    49 1   
    49    20    35 ar  
    50    20    50 1   
    51    21    27 ar  
    52    21    51 1   
    53    23    24 1   
    54    23    52 1   
    55    23    53 1   
    56    24    54 1   
    57    24    55 1   
    58    25    36 1   
    59    25    56 1   
    60    25    62 1   
    61    27    35 ar  
    62    27    62 1   
    63    35    57 1   
    64    36    58 1   
    65    36    59 1   
    66    36    60 1   
@<TRIPOS>SUBSTRUCTURE
     1 OFH         1 TEMP              0 ****  ****    0 ROOT
