@<TRIPOS>MOLECULE
molecule
   63    66     1     0     0
SMALL
bcc


@<TRIPOS>ATOM
      1 C1           0.0000     0.0000     0.0000 cx         1 OFH      -0.287000
      2 S2           0.9630     1.7260    -5.3430 sy         1 OFH       1.209300
      3 N3          -0.5030     1.7890    -1.6330 n          1 OFH      -0.468800
      4 C4          -0.6950     1.2760    -0.4020 c          1 OFH       0.721100
      5 C5          -0.2760     1.7590    -4.0190 c3         1 OFH      -0.213900
      6 C6           1.3240     0.0160    -5.5640 ca         1 OFH      -0.332500
      7 C7          -1.0540     3.0590    -2.1280 c3         1 OFH       0.055700
      8 C8          -0.7060    -1.2940    -0.4080 c3         1 OFH       0.662900
      9 C9           0.2980     1.1710    -2.7070 c3         1 OFH       0.114000
     10 C10         -0.5920     3.2190    -3.5920 c3         1 OFH      -0.062400
     11 C11          1.5300     0.0000     0.0000 cx         1 OFH      -0.091900
     12 C12          0.7640     0.0000     1.3260 cx         1 OFH      -0.091900
     13 C13         -2.5590     3.0250    -2.0650 c          1 OFH       0.661100
     14 C14         -4.7380     4.0590    -2.4110 cx         1 OFH       0.025100
     15 C15          3.8540    -5.6990    -6.3730 c3         1 OFH       0.625900
     16 C16          0.4070    -0.8080    -6.1930 ca         1 OFH       0.147400
     17 N17         -3.2740     4.0910    -2.4720 ns         1 OFH      -0.548900
     18 C18         -5.3230     3.2920    -1.2530 c2         1 OFH       0.457200
     19 N19         -4.6480     3.1460    -0.1750 n2         1 OFH      -0.743100
     20 C20          2.5250    -0.5010    -5.1140 ca         1 OFH       0.020000
     21 C21          0.6880    -2.1520    -6.3670 ca         1 OFH      -0.165000
     22 O23          2.1890     2.2870    -4.8940 o          1 OFH      -0.609300
     23 C24         -5.4930     5.3010    -2.8890 cx         1 OFH      -0.134900
     24 C25         -5.4990     4.0270    -3.7370 cx         1 OFH      -0.134900
     25 C26          3.4270    -4.4560    -5.5900 c3         1 OFH       0.087100
     26 O27         -1.4270     1.8400     0.3820 o          1 OFH      -0.537100
     27 C29          1.8910    -2.6710    -5.9110 ca         1 OFH       0.203100
     28 O30         -3.1260     2.0380    -1.6490 o          1 OFH      -0.558100
     29 F31         -0.7030    -1.4080    -1.8030 f          1 OFH      -0.218300
     30 F32         -0.0370    -2.3870     0.1510 f          1 OFH      -0.218300
     31 F33         -2.0260    -1.2690     0.0540 f          1 OFH      -0.218300
     32 F35          5.0850    -6.1560    -5.8910 f          1 OFH      -0.214633
     33 F36          2.8910    -6.7020    -6.2150 f          1 OFH      -0.214633
     34 Cl          -1.0980    -0.1570    -6.7620 cl         1 OFH      -0.060400
     35 C38          2.8110    -1.8410    -5.2860 ca         1 OFH      -0.247000
     36 C39          3.2960    -4.8080    -4.1060 c3         1 OFH      -0.124100
     37 H5          -1.1800     1.2390    -4.3110 h1         1 OFH       0.132700
     38 H7          -0.6730     3.8800    -1.5330 h1         1 OFH       0.081700
     39 H9           1.3420     1.4410    -2.5990 h1         1 OFH       0.067700
     40 H9A          0.1770     0.0940    -2.6930 h1         1 OFH       0.067700
     41 H10         -1.3880     3.6310    -4.2000 hc         1 OFH       0.071200
     42 H10A         0.2980     3.8330    -3.6460 hc         1 OFH       0.071200
     43 H11          1.9980     0.9390    -0.2690 hc         1 OFH       0.093950
     44 H11A         1.9980    -0.9390    -0.2690 hc         1 OFH       0.093950
     45 H12          0.7640    -0.9390     1.8650 hc         1 OFH       0.093950
     46 H12A         0.7640     0.9390     1.8650 hc         1 OFH       0.093950
     47 HN17        -2.8050     4.9190    -2.7830 hn         1 OFH       0.312500
     48 H18         -6.3150     2.8630    -1.3320 h4         1 OFH      -0.034200
     49 HN19        -5.0360     2.6360     0.5930 hn         1 OFH       0.404400
     50 H20          3.2440     0.1460    -4.6260 ha         1 OFH       0.165000
     51 H21         -0.0300    -2.7970    -6.8590 ha         1 OFH       0.169000
     52 H24         -6.4160     5.5180    -2.3650 hc         1 OFH       0.081700
     53 H24A        -4.8750     6.1090    -3.2630 hc         1 OFH       0.081700
     54 H25         -6.4260     3.4660    -3.7310 hc         1 OFH       0.081700
     55 H25A        -4.8850     4.0560    -4.6290 hc         1 OFH       0.081700
     56 H26          4.1730    -3.6790    -5.7120 h1         1 OFH       0.083700
     57 H38          3.7510    -2.2440    -4.9310 ha         1 OFH       0.145000
     58 H39          3.6750    -3.9890    -3.5060 hc         1 OFH       0.064033
     59 H39A         3.8670    -5.7040    -3.8960 hc         1 OFH       0.064033
     60 H39B         2.2540    -4.9800    -3.8670 hc         1 OFH       0.064033
     61 O22          0.3850     2.1250    -6.5780 o          1 OFH      -0.609300
     62 O28          2.1690    -3.9900    -6.0820 os         1 OFH      -0.301900
     63 F34          3.9730    -5.3770    -7.7290 f          1 OFH      -0.214633
@<TRIPOS>BOND
     1     1     4 1
     2     1     8 1
     3     1    11 1
     4     1    12 1
     5     2     5 1
     6     2     6 1
     7     2    61 2
     8     2    22 2
     9     3     4 1
    10     3     7 1
    11     3     9 1
    12     4    26 2
    13     5     9 1
    14     5    10 1
    15     6    16 ar
    16     6    20 ar
    17     7    10 1
    18     7    13 1
    19     8    29 1
    20     8    30 1
    21     8    31 1
    22    11    12 1
    23    13    17 1
    24    13    28 2
    25    14    17 1
    26    14    18 1
    27    14    23 1
    28    14    24 1
    29    15    25 1
    30    15    63 1
    31    15    32 1
    32    15    33 1
    33    16    21 ar
    34    16    34 1
    35    18    19 2
    36    20    35 ar
    37    21    27 ar
    38    23    24 1
    39    25    62 1
    40    25    36 1
    41    62    27 1
    42    27    35 ar
    43     5    37 1
    44     7    38 1
    45     9    39 1
    46     9    40 1
    47    10    41 1
    48    10    42 1
    49    11    43 1
    50    11    44 1
    51    12    45 1
    52    12    46 1
    53    17    47 1
    54    18    48 1
    55    19    49 1
    56    20    50 1
    57    21    51 1
    58    23    52 1
    59    23    53 1
    60    24    54 1
    61    24    55 1
    62    25    56 1
    63    35    57 1
    64    36    58 1
    65    36    59 1
    66    36    60 1
@<TRIPOS>SUBSTRUCTURE
     1 OFH         1 TEMP              0 ****  ****    0 ROOT
