@<TRIPOS>MOLECULE
OFI
   39    41     1     0     0
SMALL
bcc


@<TRIPOS>ATOM
      1 C1           0.0000     0.0000     0.0000 ca         1 OFI      -0.273900
      2 C2           1.4080     0.0000     0.0000 ca         1 OFI      -0.165200
      3 C3          -0.4110    -0.0060    -1.4040 cc         1 OFI       0.310500
      4 C4          -0.6990    -0.0010     1.2130 ca         1 OFI      -0.016000
      5 C5           2.0950     0.0000     1.2090 ca         1 OFI      -0.126000
      6 N6           1.8050     0.0010    -1.3140 na         1 OFI       0.413900
      7 N7           0.6720    -0.0080    -2.1340 nd         1 OFI      -0.612100
      8 N8          -1.7270    -0.0080    -1.8790 ns         1 OFI      -0.014400
      9 C9          -0.0150    -0.0010     2.3910 ca         1 OFI      -0.149000
     10 C10          1.3850    -0.0010     2.4010 cp         1 OFI       0.021000
     11 C11         -1.9640    -0.0140    -3.2060 c          1 OFI       0.538100
     12 C12          2.1140    -0.0010     3.6930 cp         1 OFI      -0.054000
     13 C13         -3.3820    -0.0160    -3.7180 c3         1 OFI      -0.097400
     14 O14         -1.0370    -0.0160    -3.9880 o          1 OFI      -0.579100
     15 C15          1.4050    -0.0020     4.8940 ca         1 OFI      -0.077000
     16 C16          3.5070    -0.0070     3.7090 ca         1 OFI      -0.077000
     17 C17         -3.3720    -0.0220    -5.2480 c3         1 OFI      -0.014400
     18 C18          2.0850    -0.0030     6.0930 ca         1 OFI      -0.136000
     19 C19          4.1820    -0.0080     4.9110 ca         1 OFI      -0.136000
     20 C20         -4.8110    -0.0250    -5.7670 c3         1 OFI       0.002900
     21 C21          3.4740    -0.0030     6.1060 ca         1 OFI       0.127100
     22 O22          4.1410    -0.0030     7.2900 oh         1 OFI      -0.501100
     23 H4          -1.7820    -0.0010     1.2150 ha         1 OFI       0.094000
     24 H5           3.1790    -0.0000     1.2200 ha         1 OFI       0.116000
     25 HN8         -2.4920     0.0080    -1.2340 hn         1 OFI       0.167500
     26 H9          -0.5590    -0.0020     3.3280 ha         1 OFI       0.115000
     27 H13         -3.8950     0.8700    -3.3640 hc         1 OFI       0.026200
     28 H13A        -3.8950    -0.8990    -3.3570 hc         1 OFI       0.026200
     29 H15          0.3220    -0.0020     4.8850 ha         1 OFI       0.112000
     30 H16          4.0600    -0.0110     2.7770 ha         1 OFI       0.112000
     31 H17         -2.8590    -0.9080    -5.6020 hc         1 OFI       0.028700
     32 H17A        -2.8600     0.8610    -5.6100 hc         1 OFI       0.028700
     33 H18          1.5360    -0.0010     7.0270 ha         1 OFI       0.114000
     34 H19          5.2650    -0.0100     4.9240 ha         1 OFI       0.114000
     35 H20         -5.3240    -0.9080    -5.4060 hc         1 OFI       0.000033
     36 H20A        -5.3250     0.8610    -5.4130 hc         1 OFI       0.000033
     37 H20B        -4.8040    -0.0290    -6.8510 hc         1 OFI       0.000033
     38 HO22         4.2980     0.8860     7.5630 ho         1 OFI       0.403000
     39 HN6          2.7530     0.0010    -1.6340 hn         1 OFI       0.155700
@<TRIPOS>BOND
     1     1     2 ar  
     2     1     3 1   
     3     1     4 ar  
     4     2     5 ar  
     5     2     6 1   
     6     3     7 2   
     7     3     8 1   
     8     4     9 ar  
     9     4    23 1   
    10     5    10 ar  
    11     5    24 1   
    12     6     7 1   
    13     6    39 1   
    14     8    11 1   
    15     8    25 1   
    16     9    10 ar  
    17     9    26 1   
    18    10    12 1   
    19    11    13 1   
    20    11    14 2   
    21    12    15 ar  
    22    12    16 ar  
    23    13    17 1   
    24    13    27 1   
    25    13    28 1   
    26    15    18 ar  
    27    15    29 1   
    28    16    19 ar  
    29    16    30 1   
    30    17    20 1   
    31    17    31 1   
    32    17    32 1   
    33    18    21 ar  
    34    18    33 1   
    35    19    21 ar  
    36    19    34 1   
    37    20    35 1   
    38    20    36 1   
    39    20    37 1   
    40    21    22 1   
    41    22    38 1   
@<TRIPOS>SUBSTRUCTURE
     1 OFI         1 TEMP              0 ****  ****    0 ROOT
