@<TRIPOS>MOLECULE
molecule
   29    30     1     0     0
SMALL
bcc


@<TRIPOS>ATOM
      1 C1'          0.0000     0.0000     0.0000 ca         1 OFL      -0.069000
      2 C2'          1.3800     0.0000     0.0000 ca         1 OFL      -0.217000
      3 C3'          2.0730     0.0000     1.2040 ca         1 OFL       0.263600
      4 C4'          1.3740    -0.0040     2.4050 ca         1 OFL      -0.272300
      5 C5'         -0.0080     0.0030     2.3970 ca         1 OFL      -0.045000
      6 C6'         -0.6940     0.0020     1.1970 ca         1 OFL      -0.220000
      7 C7'          2.1210    -0.0040     3.7120 c3         1 OFL       0.673200
      8 N            3.4690     0.0000     1.2080 nu         1 OFL      -0.623000
      9 C1           4.4390    -1.2320    -2.1080 ca         1 OFL      -0.136000
     10 C2           5.5580    -0.4560    -2.3690 ca         1 OFL      -0.179000
     11 C3           5.9900     0.4730    -1.4490 ca         1 OFL      -0.074000
     12 C4           5.2970     0.6370    -0.2460 ca         1 OFL      -0.125600
     13 C5           4.1670    -0.1530     0.0170 ca         1 OFL       0.158600
     14 C6           3.7440    -1.0810    -0.9260 ca         1 OFL      -0.195000
     15 O1           6.9080     2.2950     0.5440 o          1 OFL      -0.831300
     16 O2           5.0880     1.8490     1.7340 o          1 OFL      -0.831300
     17 F1           1.2070     0.0050     4.7710 f          1 OFL      -0.225300
     18 F2           2.9190    -1.1490     3.7940 f          1 OFL      -0.225300
     19 F3           2.9300     1.1340     3.7860 f          1 OFL      -0.225300
     20 H1'         -0.5410    -0.0000    -0.9390 ha         1 OFL       0.118000
     21 H2'          1.9230     0.0010    -0.9380 ha         1 OFL       0.160000
     22 H5'         -0.5540     0.0020     3.3320 ha         1 OFL       0.132000
     23 H6'         -1.7770     0.0040     1.1940 ha         1 OFL       0.117000
     24 HN1          3.9660     0.0750     2.0730 hn         1 OFL       0.489800
     25 H1           4.1060    -1.9590    -2.8390 ha         1 OFL       0.105000
     26 H2           6.0960    -0.5830    -3.3010 ha         1 OFL       0.108000
     27 H3           6.8640     1.0780    -1.6590 ha         1 OFL       0.158000
     28 H6           2.8700    -1.6910    -0.7310 ha         1 OFL       0.123000
     29 C7           5.7530     1.6300     0.7420 c          1 OFL       0.883200
@<TRIPOS>BOND
     1     1     2 ar
     2     1     6 ar
     3     1    20 1
     4     2     3 ar
     5     2    21 1
     6     3     4 ar
     7     3     8 1
     8     4     5 ar
     9     4     7 1
    10     5     6 ar
    11     5    22 1
    12     6    23 1
    13     7    17 1
    14     7    18 1
    15     7    19 1
    16     8    13 1
    17     8    24 1
    18     9    10 ar
    19     9    14 ar
    20     9    25 1
    21    10    11 ar
    22    10    26 1
    23    11    12 ar
    24    11    27 1
    25    12    13 ar
    26    12    29 1
    27    13    14 ar
    28    14    28 1
    29    29    15 1
    30    29    16 1
@<TRIPOS>SUBSTRUCTURE
     1 OFL         1 TEMP              0 ****  ****    0 ROOT
