@<TRIPOS>MOLECULE
OFT
   49    52     1     0     0
SMALL
bcc


@<TRIPOS>ATOM
      1 C1           0.0000     0.0000     0.0000 ca         1 OFT      -0.012000
      2 C2           1.3910     0.0000     0.0000 ca         1 OFT      -0.247900
      3 C3           2.0980     0.0000     1.2080 ca         1 OFT      -0.134200
      4 C4           1.3890    -0.0010     2.4060 ca         1 OFT      -0.124000
      5 C5           0.0100    -0.0020     2.3950 ca         1 OFT      -0.045000
      6 C6          -0.6860     0.0050     1.1980 ca         1 OFT      -0.138000
      7 C7           2.3980     0.0020    -1.0870 cc         1 OFT       0.456200
      8 C8           3.7070     0.0020    -0.3980 cc         1 OFT      -0.099700
      9 N9           3.4620     0.0010     0.9480 na         1 OFT       0.280600
     10 C10          4.9550     0.0030    -1.0060 cd         1 OFT      -0.226400
     11 C11          5.2600    -0.2290    -2.4340 ca         1 OFT      -0.102800
     12 C12          6.6530    -0.1290    -2.5630 ca         1 OFT      -0.074400
     13 N13          7.2060     0.1450    -1.3180 ns         1 OFT       0.013900
     14 C14          6.2570     0.2400    -0.3710 c          1 OFT       0.631700
     15 C15          4.4690    -0.5010    -3.5470 ca         1 OFT       0.004000
     16 C16          5.0620    -0.6730    -4.7820 ca         1 OFT      -0.179500
     17 C17          6.4380    -0.5740    -4.9120 ca         1 OFT       0.022000
     18 C18          7.2310    -0.3050    -3.8140 ca         1 OFT      -0.152000
     19 O19          6.4450     0.4770     0.8090 o          1 OFT      -0.692500
     20 N20          2.1790     0.0020    -2.3740 n2         1 OFT      -0.318200
     21 O21          0.8510     0.0020    -2.8660 oh         1 OFT      -0.369500
     22 S22          4.0660    -1.0180    -6.1940 sy         1 OFT       1.057200
     23 O23          4.9130    -1.6680    -7.1320 o          1 OFT      -0.596300
     24 O24          2.8620    -1.5920    -5.7050 o          1 OFT      -0.596300
     25 N25          3.6520     0.4360    -6.8680 n3         1 OFT      -0.528500
     26 C26          4.5100     1.0410    -7.8910 c3         1 OFT       0.233300
     27 C27          3.9910     0.6640    -9.2800 c3         1 OFT      -0.027100
     28 C28          2.4270     1.1180    -6.4430 c3         1 OFT       0.233300
     29 C29          2.7640     2.1360    -5.3500 c3         1 OFT      -0.027100
     30 H1          -0.5430     0.0050    -0.9370 ha         1 OFT       0.116000
     31 H4           1.9220    -0.0060     3.3490 ha         1 OFT       0.111000
     32 H5          -0.5340     0.0020     3.3320 ha         1 OFT       0.105000
     33 H6          -1.7690     0.0040     1.2020 ha         1 OFT       0.111000
     34 HN9          4.1730     0.0010     1.6530 hn         1 OFT       0.162700
     35 HN13         8.1850     0.2650    -1.1500 hn         1 OFT       0.176500
     36 H15          3.3930    -0.5780    -3.4440 ha         1 OFT       0.181000
     37 H17          6.8950    -0.7110    -5.8850 ha         1 OFT       0.120000
     38 H18          8.3050    -0.2300    -3.9290 ha         1 OFT       0.108000
     39 H10          0.6040    -0.8770    -3.1010 ho         1 OFT       0.421000
     40 H26          5.5240     0.6780    -7.7730 h1         1 OFT       0.021450
     41 H12          4.4970     2.1190    -7.7810 h1         1 OFT       0.021450
     42 H27          4.8290     0.4620    -9.9360 hc         1 OFT       0.009533
     43 H27A         3.4070     1.4830    -9.6820 hc         1 OFT       0.009533
     44 H151         3.3700    -0.2210    -9.2050 hc         1 OFT       0.009533
     45 H28          1.7250     0.3900    -6.0550 h1         1 OFT       0.021450
     46 H28A         1.9860     1.6300    -7.2890 h1         1 OFT       0.021450
     47 H29          2.7350     3.1350    -5.7660 hc         1 OFT       0.009533
     48 H29A         3.7550     1.9340    -4.9620 hc         1 OFT       0.009533
     49 H29B         2.0390     2.0570    -4.5480 hc         1 OFT       0.009533
@<TRIPOS>BOND
     1     1     2 ar  
     2     1     6 ar  
     3     1    30 1   
     4     2     3 ar  
     5     2     7 1   
     6     3     4 ar  
     7     3     9 1   
     8     4     5 ar  
     9     4    31 1   
    10     5     6 ar  
    11     5    32 1   
    12     6    33 1   
    13     7     8 1   
    14     7    20 2   
    15     8     9 1   
    16     8    10 2   
    17     9    34 1   
    18    10    11 1   
    19    10    14 1   
    20    11    12 ar  
    21    11    15 ar  
    22    12    13 1   
    23    12    18 ar  
    24    13    14 1   
    25    13    35 1   
    26    14    19 2   
    27    15    16 ar  
    28    15    36 1   
    29    16    17 ar  
    30    16    22 1   
    31    17    18 ar  
    32    17    37 1   
    33    18    38 1   
    34    20    21 1   
    35    21    39 1   
    36    22    23 2   
    37    22    24 2   
    38    22    25 1   
    39    25    26 1   
    40    25    28 1   
    41    26    27 1   
    42    26    40 1   
    43    26    41 1   
    44    27    42 1   
    45    27    43 1   
    46    27    44 1   
    47    28    29 1   
    48    28    45 1   
    49    28    46 1   
    50    29    47 1   
    51    29    48 1   
    52    29    49 1   
@<TRIPOS>SUBSTRUCTURE
     1 OFT         1 TEMP              0 ****  ****    0 ROOT
