@<TRIPOS>MOLECULE
molecule
   49    52     1     0     0
SMALL
bcc


@<TRIPOS>ATOM
      1 C1           0.0000     0.0000     0.0000 ca         1 OFT      -0.038000
      2 C2           1.3910     0.0000     0.0000 ca         1 OFT      -0.249900
      3 C3           2.0980     0.0000     1.2080 ca         1 OFT       0.034800
      4 C4           1.3890    -0.0010     2.4060 ca         1 OFT      -0.164000
      5 C5           0.0100    -0.0020     2.3950 ca         1 OFT      -0.071000
      6 C6          -0.6860     0.0050     1.1980 ca         1 OFT      -0.167000
      7 C7           2.3980     0.0020    -1.0870 cc         1 OFT       0.476200
      8 C8           3.7070     0.0020    -0.3980 cc         1 OFT       0.066300
      9 N9           3.4620     0.0010     0.9480 na         1 OFT      -0.220400
     10 C10          4.9550     0.0030    -1.0060 cd         1 OFT      -0.210400
     11 C11          5.2600    -0.2290    -2.4340 ca         1 OFT      -0.110800
     12 C12          6.6530    -0.1290    -2.5630 ca         1 OFT       0.095600
     13 N13          7.2060     0.1450    -1.3180 ns         1 OFT      -0.448100
     14 C14          6.2570     0.2400    -0.3710 c          1 OFT       0.726700
     15 C15          4.4690    -0.5010    -3.5470 ca         1 OFT       0.009000
     16 C16          5.0620    -0.6730    -4.7820 ca         1 OFT      -0.344500
     17 C17          6.4380    -0.5740    -4.9120 ca         1 OFT      -0.001000
     18 C18          7.2310    -0.3050    -3.8140 ca         1 OFT      -0.183000
     19 O19          6.4450     0.4770     0.8090 o          1 OFT      -0.639500
     20 N20          2.1790     0.0020    -2.3740 n2         1 OFT      -0.392200
     21 O21          0.8510     0.0020    -2.8660 oh         1 OFT      -0.379500
     22 S22          4.0660    -1.0180    -6.1940 sy         1 OFT       1.434200
     23 O23          4.9130    -1.6680    -7.1320 o          1 OFT      -0.644300
     24 O24          2.8620    -1.5920    -5.7050 o          1 OFT      -0.644300
     25 N25          3.6520     0.4360    -6.8680 n3         1 OFT      -0.818500
     26 C26          4.5100     1.0410    -7.8910 c3         1 OFT       0.233300
     27 C27          3.9910     0.6640    -9.2800 c3         1 OFT      -0.115600
     28 C28          2.4270     1.1180    -6.4430 c3         1 OFT       0.233300
     29 C29          2.7640     2.1360    -5.3500 c3         1 OFT      -0.115600
     30 H1          -0.5430     0.0050    -0.9370 ha         1 OFT       0.151000
     31 H4           1.9220    -0.0060     3.3490 ha         1 OFT       0.139000
     32 H5          -0.5340     0.0020     3.3320 ha         1 OFT       0.139000
     33 H6          -1.7690     0.0040     1.2020 ha         1 OFT       0.141000
     34 HN9          4.1730     0.0010     1.6530 hn         1 OFT       0.335700
     35 HN13         8.1850     0.2650    -1.1500 hn         1 OFT       0.344500
     36 H15          3.3930    -0.5780    -3.4440 ha         1 OFT       0.199000
     37 H17          6.8950    -0.7110    -5.8840 ha         1 OFT       0.151000
     38 H18          8.3050    -0.2300    -3.9290 ha         1 OFT       0.136000
     39 H10          0.6440    -0.8510    -3.2110 ho         1 OFT       0.431000
     40 H26          4.4970     2.1190    -7.7810 h1         1 OFT       0.055950
     41 H12          5.5240     0.6780    -7.7730 h1         1 OFT       0.055950
     42 H27          3.4140     1.4860    -9.6860 hc         1 OFT       0.043033
     43 H27A         3.3630    -0.2150    -9.2040 hc         1 OFT       0.043033
     44 H151         4.8290     0.4530    -9.9330 hc         1 OFT       0.043033
     45 H28          1.7250     0.3900    -6.0550 h1         1 OFT       0.055950
     46 H28A         1.9860     1.6300    -7.2890 h1         1 OFT       0.055950
     47 H29          2.0220     2.0790    -4.5630 hc         1 OFT       0.043033
     48 H29A         3.7420     1.9150    -4.9400 hc         1 OFT       0.043033
     49 H29B         2.7650     3.1330    -5.7730 hc         1 OFT       0.043033
@<TRIPOS>BOND
     1     1     2 ar
     2     2     3 ar
     3     2     7 1
     4     3     9 1
     5     4     3 ar
     6     5     4 ar
     7     6     1 ar
     8     6     5 ar
     9     7     8 1
    10     8    10 2
    11     9     8 1
    12    10    11 1
    13    10    14 1
    14    11    12 ar
    15    12    13 1
    16    12    18 ar
    17    14    13 1
    18    15    11 ar
    19    15    16 ar
    20    16    17 ar
    21    17    18 ar
    22    19    14 2
    23    20     7 2
    24    21    20 1
    25    22    16 1
    26    22    23 2
    27    22    24 2
    28    25    22 1
    29    26    25 1
    30    27    26 1
    31    28    25 1
    32    29    28 1
    33     1    30 1
    34     4    31 1
    35     5    32 1
    36     6    33 1
    37     9    34 1
    38    13    35 1
    39    15    36 1
    40    17    37 1
    41    18    38 1
    42    21    39 1
    43    26    40 1
    44    26    41 1
    45    27    42 1
    46    27    43 1
    47    27    44 1
    48    28    45 1
    49    28    46 1
    50    29    47 1
    51    29    48 1
    52    29    49 1
@<TRIPOS>SUBSTRUCTURE
     1 OFT         1 TEMP              0 ****  ****    0 ROOT
