@<TRIPOS>MOLECULE
OGA
   13    12     1     0     0
SMALL
bcc


@<TRIPOS>ATOM
      1 C1           0.0000     0.0000     0.0000 c          1 OGA       0.924600
      2 C2           1.4930     0.0000     0.0000 c          1 OGA       0.463100
      3 C4           3.6320    -0.0000     1.1660 c3         1 OGA      -0.066000
      4 C5           4.1350     0.0000     2.5860 c          1 OGA       0.975600
      5 O1          -0.6060     0.0000     1.0500 o          1 OGA      -0.896800
      6 O2          -0.6740     0.0000    -1.1650 o          1 OGA      -0.896800
      7 O2'          2.1010    -0.0000    -1.0510 o          1 OGA      -0.715100
      8 O3           5.4550    -0.0000     2.8320 o          1 OGA      -0.915800
      9 N1           2.1680     0.0000     1.1660 ns         1 OGA      -0.186900
     10 O4           3.3510     0.0000     3.5050 o          1 OGA      -0.915800
     11 H4C1         3.9930     0.8840     0.6550 h1         1 OGA       0.008700
     12 H4C2         3.9930    -0.8840     0.6550 h1         1 OGA       0.008700
     13 H1           1.6670     0.0000     2.0330 hn         1 OGA       0.213500
@<TRIPOS>BOND
     1     1     2 1   
     2     1     5 1   
     3     1     6 1   
     4     2     7 2   
     5     2     9 1   
     6     3     4 1   
     7     3     9 1   
     8     3    11 1   
     9     3    12 1   
    10     4     8 1   
    11     4    10 1   
    12     9    13 1   
@<TRIPOS>SUBSTRUCTURE
     1 OGA         1 TEMP              0 ****  ****    0 ROOT
