@<TRIPOS>MOLECULE
OGG
   26    25     1     0     0
SMALL
bcc


@<TRIPOS>ATOM
      1 NB           0.0000     0.0000     0.0000 nz         1 OGG       0.204600
      2 CC           1.3470     0.0000     0.0000 c          1 OGG       0.292100
      3 OL           1.9530     0.0000     1.0510 o          1 OGG      -0.360100
      4 CD           2.1020     0.0030    -1.3030 c3         1 OGG       0.151400
      5 OE           3.5060     0.0020    -1.0410 os         1 OGG      -0.359600
      6 CF           4.1630     0.0050    -2.3100 c3         1 OGG       0.202400
      7 CG           5.6780     0.0050    -2.1000 c3         1 OGG       0.202400
      8 OH           6.0580    -1.1610    -1.3680 os         1 OGG      -0.359600
      9 CI           7.4760    -1.1040    -1.2050 c3         1 OGG       0.151400
     10 CJ           7.9440    -2.3120    -0.4370 c          1 OGG       0.292100
     11 OM           7.1410    -3.1430    -0.0670 o          1 OGG      -0.360100
     12 NK           9.2530    -2.4720    -0.1640 nz         1 OGG       0.204600
     13 HNB1        -0.3340    -0.0090     0.9440 hn         1 OGG       0.251800
     14 HNB2        -0.3340    -0.8130    -0.4800 hn         1 OGG       0.251800
     15 HD1          1.8410     0.8880    -1.8690 h1         1 OGG       0.036700
     16 HD2          1.8410    -0.8810    -1.8730 h1         1 OGG       0.036700
     17 HF1          3.8760    -0.8790    -2.8670 h1         1 OGG       0.020200
     18 HF2          3.8750     0.8900    -2.8640 h1         1 OGG       0.020200
     19 HG1          6.1760     0.0050    -3.0620 h1         1 OGG       0.020200
     20 HG2          5.9650     0.8890    -1.5440 h1         1 OGG       0.020200
     21 HI1          7.9500    -1.0900    -2.1790 h1         1 OGG       0.036700
     22 HI2          7.7410    -0.2060    -0.6620 h1         1 OGG       0.036700
     23 HNK1         9.3850    -3.3160     0.3570 hn         1 OGG       0.251800
     24 HNK2         9.5790    -1.6940     0.3750 hn         1 OGG       0.251800
     25 HB3         -0.3340     0.7970    -0.5050 hn         1 OGG       0.251800
     26 HK3          9.7640    -2.5660    -1.0190 hn         1 OGG       0.251800
@<TRIPOS>BOND
     1     1     2 1   
     2     1    13 1   
     3     1    14 1   
     4     1    25 1   
     5     2     3 2   
     6     2     4 1   
     7     4     5 1   
     8     4    15 1   
     9     4    16 1   
    10     5     6 1   
    11     6     7 1   
    12     6    17 1   
    13     6    18 1   
    14     7     8 1   
    15     7    19 1   
    16     7    20 1   
    17     8     9 1   
    18     9    10 1   
    19     9    21 1   
    20     9    22 1   
    21    10    11 2   
    22    10    12 1   
    23    12    23 1   
    24    12    24 1   
    25    12    26 1   
@<TRIPOS>SUBSTRUCTURE
     1 OGG         1 TEMP              0 ****  ****    0 ROOT
