@<TRIPOS>MOLECULE
molecule
   26    25     1     0     0
SMALL
bcc


@<TRIPOS>ATOM
      1 NB           0.0000     0.0000     0.0000 nz         1 OGG      -0.683900
      2 CC           1.3470     0.0000     0.0000 c          1 OGG       0.471100
      3 OL           1.9530     0.0000     1.0510 o          1 OGG      -0.353600
      4 CD           2.1020     0.0030    -1.3030 c3         1 OGG       0.060900
      5 OE           3.5060     0.0020    -1.0410 os         1 OGG      -0.365100
      6 CF           4.1630     0.0050    -2.3100 c3         1 OGG       0.126900
      7 CG           5.6780     0.0050    -2.1000 c3         1 OGG       0.126900
      8 OH           6.0580    -1.1610    -1.3680 os         1 OGG      -0.365100
      9 CI           7.4760    -1.1040    -1.2050 c3         1 OGG       0.060900
     10 CJ           7.9440    -2.3120    -0.4370 c          1 OGG       0.471100
     11 OM           7.1410    -3.1430    -0.0670 o          1 OGG      -0.353600
     12 NK           9.2530    -2.4720    -0.1640 nz         1 OGG      -0.683900
     13 HNB1        -0.3340    -0.0090     0.9440 hn         1 OGG       0.485633
     14 HNB2        -0.3340    -0.8130    -0.4800 hn         1 OGG       0.485633
     15 HD1          1.8410     0.8880    -1.8690 h1         1 OGG       0.080700
     16 HD2          1.8410    -0.8810    -1.8730 h1         1 OGG       0.080700
     17 HF1          3.8760    -0.8790    -2.8670 h1         1 OGG       0.063200
     18 HF2          3.8750     0.8900    -2.8640 h1         1 OGG       0.063200
     19 HG1          6.1760     0.0050    -3.0620 h1         1 OGG       0.063200
     20 HG2          5.9650     0.8890    -1.5440 h1         1 OGG       0.063200
     21 HI1          7.9500    -1.0900    -2.1790 h1         1 OGG       0.080700
     22 HI2          7.7410    -0.2060    -0.6620 h1         1 OGG       0.080700
     23 HNK1         9.3850    -3.3160     0.3570 hn         1 OGG       0.485633
     24 HNK2         9.5790    -1.6940     0.3750 hn         1 OGG       0.485633
     25 HB3         -0.3340     0.7970    -0.5050 hn         1 OGG       0.485633
     26 HK3          9.7640    -2.5660    -1.0190 hn         1 OGG       0.485633
@<TRIPOS>BOND
     1     1     2 1
     2     1    13 1
     3     1    14 1
     4     2     3 2
     5     2     4 1
     6     4     5 1
     7     4    15 1
     8     4    16 1
     9     5     6 1
    10     6     7 1
    11     6    17 1
    12     6    18 1
    13     7     8 1
    14     7    19 1
    15     7    20 1
    16     8     9 1
    17     9    10 1
    18     9    21 1
    19     9    22 1
    20    10    11 2
    21    10    12 1
    22    12    23 1
    23    12    24 1
    24    25     1 1
    25    26    12 1
@<TRIPOS>SUBSTRUCTURE
     1 OGG         1 TEMP              0 ****  ****    0 ROOT
