@<TRIPOS>MOLECULE
molecule
   49    51     1     0     0
SMALL
bcc


@<TRIPOS>ATOM
      1 C01          0.0000     0.0000     0.0000 c3         1 OGK      -0.101100
      2 C02          1.5300     0.0000     0.0000 c3         1 OGK      -0.073400
      3 C03          2.0400     0.0000     1.4430 c3         1 OGK      -0.072700
      4 C04          1.6570    -1.3180     2.1240 c3         1 OGK      -0.068400
      5 C05          2.1040    -1.2490     3.5840 c3         1 OGK      -0.139700
      6 C06          1.3820    -0.1150     4.2660 c          1 OGK       0.659100
      7 O07          2.0130     0.7970     4.7560 o          1 OGK      -0.608100
      8 N08          0.0360    -0.1150     4.3320 ns         1 OGK      -0.521900
      9 C09         -0.6600     0.9250     5.0920 cx         1 OGK      -0.011600
     10 C10         -0.8640     2.2330     4.3700 c          1 OGK       0.925600
     11 O11         -0.8120     3.2740     4.9800 o          1 OGK      -0.834300
     12 O12         -1.1040     2.2400     3.0490 o          1 OGK      -0.834300
     13 C13         -1.7530     0.4770     6.0640 cx         1 OGK      -0.158400
     14 C14         -0.4130     0.9830     6.6010 cx         1 OGK      -0.108700
     15 C15         -0.3920     2.3630     7.2610 c3         1 OGK      -0.028400
     16 C16         -0.0080     2.2170     8.7350 c3         1 OGK      -0.100100
     17 C17          3.5920    -1.0240     3.6990 c3         1 OGK      -0.041700
     18 C18          4.4140    -2.1990     3.1370 c3         1 OGK      -0.084400
     19 C19          5.8100    -1.5720     2.9130 c3         1 OGK      -0.198400
     20 C20          5.6040    -0.0740     2.7910 c          1 OGK       0.578100
     21 O21          6.4640     0.7600     2.6500 o          1 OGK      -0.526100
     22 C22          4.0980     0.1770     2.8810 c3         1 OGK      -0.159700
     23 C23          3.5600     0.1250     1.4490 c3         1 OGK      -0.060400
     24 H01         -0.3610    -0.9540     0.3650 hc         1 OGK       0.042367
     25 H01A        -0.3610     0.1610    -1.0090 hc         1 OGK       0.042367
     26 H02          1.8910     0.8850    -0.5110 hc         1 OGK       0.027200
     27 H03          1.6050     0.8290     1.9880 hc         1 OGK       0.110700
     28 H04          2.1560    -2.1420     1.6300 hc         1 OGK       0.040700
     29 H04A         0.5830    -1.4540     2.0780 hc         1 OGK       0.040700
     30 H05          1.8500    -2.1810     4.0740 hc         1 OGK       0.048700
     31 HN08        -0.4850    -0.8510     3.8980 hn         1 OGK       0.300500
     32 H13         -1.9090    -0.5930     6.1310 hc         1 OGK       0.062700
     33 H13A        -2.5880     1.1580     6.1750 hc         1 OGK       0.062700
     34 H14          0.2430     0.2100     6.9830 hc         1 OGK       0.057700
     35 H15         -1.3730     2.8140     7.1860 hc         1 OGK       0.073700
     36 H15A         0.3340     2.9920     6.7600 hc         1 OGK       0.073700
     37 H16         -0.1400     3.1670     9.2380 hc         1 OGK       0.015367
     38 H16A         1.0270     1.9080     8.8100 hc         1 OGK       0.015367
     39 H16B        -0.6420     1.4710     9.2010 hc         1 OGK       0.015367
     40 H17          3.8480    -0.8780     4.7410 hc         1 OGK       0.068700
     41 H18          3.9960    -2.5430     2.1980 hc         1 OGK       0.044200
     42 H18A         4.4690    -3.0050     3.8580 hc         1 OGK       0.044200
     43 H19          6.2470    -1.9600     2.0010 hc         1 OGK       0.060200
     44 H19A         6.4510    -1.7880     3.7590 hc         1 OGK       0.060200
     45 H22          3.8760     1.1200     3.3660 hc         1 OGK       0.121700
     46 H23          3.8440     1.0330     0.9310 hc         1 OGK       0.036700
     47 H23A         3.9890    -0.7300     0.9400 hc         1 OGK       0.036700
     48 H26         -0.3610     0.7930     0.6430 hc         1 OGK       0.042367
     49 H27          1.8910    -0.8850    -0.5110 hc         1 OGK       0.027200
@<TRIPOS>BOND
     1     1    24 1
     2     1    25 1
     3     2     1 1
     4     2    26 1
     5     3     2 1
     6     3    23 1
     7     3    27 1
     8     4     3 1
     9     4    28 1
    10     4    29 1
    11     5     4 1
    12     5    30 1
    13     6     5 1
    14     7     6 2
    15     8     6 1
    16     8    31 1
    17     9     8 1
    18     9    14 1
    19     9    13 1
    20    10     9 1
    21    11    10 1
    22    12    10 1
    23    13    32 1
    24    13    33 1
    25    14    13 1
    26    14    34 1
    27    15    14 1
    28    15    16 1
    29    15    35 1
    30    15    36 1
    31    16    37 1
    32    16    38 1
    33    16    39 1
    34    17     5 1
    35    17    22 1
    36    17    18 1
    37    17    40 1
    38    18    19 1
    39    18    41 1
    40    18    42 1
    41    19    43 1
    42    19    44 1
    43    20    19 1
    44    20    21 2
    45    22    20 1
    46    22    23 1
    47    22    45 1
    48    23    46 1
    49    23    47 1
    50     1    48 1
    51     2    49 1
@<TRIPOS>SUBSTRUCTURE
     1 OGK         1 TEMP              0 ****  ****    0 ROOT
