@<TRIPOS>MOLECULE
OGK
   49    51     1     0     0
SMALL
bcc


@<TRIPOS>ATOM
      1 C01          0.0000     0.0000     0.0000 c3         1 OGK      -0.020100
      2 C02          1.5300     0.0000     0.0000 c3         1 OGK      -0.016400
      3 C03          2.0400     0.0000     1.4430 c3         1 OGK      -0.065700
      4 C04          1.6570    -1.3180     2.1240 c3         1 OGK      -0.028400
      5 C05          2.1040    -1.2490     3.5840 c3         1 OGK      -0.113700
      6 C06          1.3820    -0.1150     4.2660 c          1 OGK       0.558100
      7 O07          2.0130     0.7970     4.7560 o          1 OGK      -0.650100
      8 N08          0.0360    -0.1150     4.3320 ns         1 OGK      -0.087900
      9 C09         -0.6600     0.9250     5.0920 cx         1 OGK      -0.146600
     10 C10         -0.8640     2.2330     4.3700 c          1 OGK       1.017600
     11 O11         -0.8120     3.2740     4.9800 o          1 OGK      -0.884300
     12 O12         -1.1040     2.2400     3.0490 o          1 OGK      -0.884300
     13 C13         -1.7530     0.4770     6.0640 cx         1 OGK      -0.104400
     14 C14         -0.4130     0.9830     6.6010 cx         1 OGK      -0.076700
     15 C15         -0.3920     2.3630     7.2610 c3         1 OGK       0.002600
     16 C16         -0.0080     2.2170     8.7350 c3         1 OGK      -0.002100
     17 C17          3.5920    -1.0240     3.6990 c3         1 OGK      -0.018700
     18 C18          4.4140    -2.1990     3.1370 c3         1 OGK      -0.035400
     19 C19          5.8100    -1.5720     2.9130 c3         1 OGK      -0.139400
     20 C20          5.6040    -0.0740     2.7910 c          1 OGK       0.626100
     21 O21          6.4640     0.7600     2.6500 o          1 OGK      -0.559100
     22 C22          4.0980     0.1770     2.8810 c3         1 OGK      -0.143700
     23 C23          3.5600     0.1250     1.4490 c3         1 OGK      -0.009400
     24 H01         -0.3610    -0.9540     0.3650 hc         1 OGK       0.013367
     25 H01A        -0.3610     0.1610    -1.0090 hc         1 OGK       0.013367
     26 H02          1.8910     0.8850    -0.5110 hc         1 OGK       0.001700
     27 H03          1.6050     0.8290     1.9880 hc         1 OGK       0.088700
     28 H04          2.1560    -2.1420     1.6300 hc         1 OGK       0.019200
     29 H04A         0.5830    -1.4540     2.0780 hc         1 OGK       0.019200
     30 H05          1.8500    -2.1810     4.0740 hc         1 OGK       0.021700
     31 HN08        -0.4850    -0.8510     3.8980 hn         1 OGK       0.152500
     32 H13         -1.9090    -0.5930     6.1310 hc         1 OGK       0.038200
     33 H13A        -2.5880     1.1580     6.1750 hc         1 OGK       0.038200
     34 H14          0.2430     0.2100     6.9830 hc         1 OGK       0.037700
     35 H15         -1.3730     2.8140     7.1860 hc         1 OGK       0.052200
     36 H15A         0.3340     2.9920     6.7600 hc         1 OGK       0.052200
     37 H16         -0.1400     3.1670     9.2380 hc         1 OGK      -0.014300
     38 H16A         1.0270     1.9080     8.8100 hc         1 OGK      -0.014300
     39 H16B        -0.6420     1.4710     9.2010 hc         1 OGK      -0.014300
     40 H17          3.8480    -0.8780     4.7410 hc         1 OGK       0.044700
     41 H18          3.9960    -2.5430     2.1980 hc         1 OGK       0.018700
     42 H18A         4.4690    -3.0050     3.8580 hc         1 OGK       0.018700
     43 H19          6.2470    -1.9600     2.0010 hc         1 OGK       0.029200
     44 H19A         6.4510    -1.7880     3.7590 hc         1 OGK       0.029200
     45 H22          3.8760     1.1200     3.3660 hc         1 OGK       0.096700
     46 H23          3.8440     1.0330     0.9310 hc         1 OGK       0.012200
     47 H23A         3.9890    -0.7300     0.9400 hc         1 OGK       0.012200
     48 H26         -0.3610     0.7930     0.6430 hc         1 OGK       0.013367
     49 H27          1.8910    -0.8850    -0.5110 hc         1 OGK       0.001700
@<TRIPOS>BOND
     1     1     2 1   
     2     1    24 1   
     3     1    25 1   
     4     1    48 1   
     5     2     3 1   
     6     2    26 1   
     7     2    49 1   
     8     3     4 1   
     9     3    23 1   
    10     3    27 1   
    11     4     5 1   
    12     4    28 1   
    13     4    29 1   
    14     5     6 1   
    15     5    17 1   
    16     5    30 1   
    17     6     7 2   
    18     6     8 1   
    19     8     9 1   
    20     8    31 1   
    21     9    10 1   
    22     9    13 1   
    23     9    14 1   
    24    10    11 1   
    25    10    12 1   
    26    13    14 1   
    27    13    32 1   
    28    13    33 1   
    29    14    15 1   
    30    14    34 1   
    31    15    16 1   
    32    15    35 1   
    33    15    36 1   
    34    16    37 1   
    35    16    38 1   
    36    16    39 1   
    37    17    18 1   
    38    17    22 1   
    39    17    40 1   
    40    18    19 1   
    41    18    41 1   
    42    18    42 1   
    43    19    20 1   
    44    19    43 1   
    45    19    44 1   
    46    20    21 2   
    47    20    22 1   
    48    22    23 1   
    49    22    45 1   
    50    23    46 1   
    51    23    47 1   
@<TRIPOS>SUBSTRUCTURE
     1 OGK         1 TEMP              0 ****  ****    0 ROOT
