@<TRIPOS>MOLECULE
molecule
   44    45     1     0     0
SMALL
bcc


@<TRIPOS>ATOM
      1 CAA          0.0000     0.0000     0.0000 c2         1 OGN       0.516600
      2 CAB          1.5130     0.0000     0.0000 c3         1 OGN       0.106400
      3 CAC          1.9940     0.0000     1.4560 c3         1 OGN       0.119100
      4 CAD          1.3040     1.1440     2.2070 c3         1 OGN       0.092100
      5 CAE         -0.2120     0.9430     2.1560 c3         1 OGN       0.153100
      6 CAF         -0.9050     2.1040     2.8720 c3         1 OGN       0.149400
      7 CAH          2.6480    -2.4360    -2.7270 c3         1 OGN      -0.166100
      8 NAI          2.0070    -1.1980    -0.6830 ns         1 OGN      -0.575900
      9 OAJ          3.4100     0.1900     1.4930 oh         1 OGN      -0.583800
     10 OAK          1.6410     2.3890     1.5910 oh         1 OGN      -0.574800
     11 OAL         -0.6380     0.9020     0.7900 os         1 OGN      -0.412400
     12 OAM         -2.3120     1.8580     2.9280 oh         1 OGN      -0.599800
     13 OAN          1.8490    -0.2160    -2.6660 o          1 OGN      -0.596100
     14 NAO         -3.8600    -1.7400    -1.5390 ns         1 OGN      -0.460100
     15 CAP         -2.5130    -1.7030    -1.5070 c          1 OGN       0.750100
     16 OAQ         -1.8820    -0.8130    -0.7200 os         1 OGN      -0.131600
     17 OAR         -1.8680    -2.4750    -2.1890 o          1 OGN      -0.551000
     18 CAS         -4.5160    -2.5980    -2.4280 ca         1 OGN       0.068600
     19 CAT         -3.9720    -3.8400    -2.7260 ca         1 OGN      -0.141000
     20 CAU         -4.6230    -4.6840    -3.6030 ca         1 OGN      -0.113000
     21 CAV         -5.8140    -4.2950    -4.1860 ca         1 OGN      -0.142000
     22 CAW         -6.3580    -3.0580    -3.8920 ca         1 OGN      -0.113000
     23 CAX         -5.7160    -2.2110    -3.0110 ca         1 OGN      -0.141000
     24 NAY         -0.6630    -0.8280    -0.7330 n2         1 OGN      -0.422200
     25 HAB          1.8760     0.8880    -0.5020 h1         1 OGN       0.134700
     26 HAC          1.7370    -0.9440     1.9220 h1         1 OGN       0.040700
     27 HAD          1.6320     1.1460     3.2390 h1         1 OGN       0.041700
     28 HAE         -0.4680     0.0080     2.6410 h1         1 OGN       0.056700
     29 HAF         -0.7210     3.0240     2.3310 h1         1 OGN       0.039200
     30 HAFA        -0.5150     2.1920     3.8790 h1         1 OGN       0.039200
     31 HAH          2.1770    -3.3140    -2.3020 hc         1 OGN       0.060700
     32 HAHA         3.7220    -2.5100    -2.6110 hc         1 OGN       0.060700
     33 HAHB         2.4020    -2.3690    -3.7800 hc         1 OGN       0.060700
     34 HNAI         2.2610    -2.0080    -0.1530 hn         1 OGN       0.311500
     35 HOAJ         3.7750    -0.3040     2.2080 ho         1 OGN       0.403000
     36 HOAK         2.2050     2.8810     2.1650 ho         1 OGN       0.408000
     37 HOAM        -2.7140     2.4630     3.5290 ho         1 OGN       0.404000
     38 HNAO        -4.3900    -1.1710    -0.9100 hn         1 OGN       0.335500
     39 HAT         -3.0380    -4.1470    -2.2700 ha         1 OGN       0.149500
     40 HAU         -4.1990    -5.6540    -3.8360 ha         1 OGN       0.133000
     41 HAV         -6.3210    -4.9590    -4.8760 ha         1 OGN       0.130000
     42 HAW         -7.2930    -2.7560    -4.3490 ha         1 OGN       0.133000
     43 HAX         -6.1430    -1.2420    -2.7810 ha         1 OGN       0.149500
     44 CAG          2.1390    -1.2030    -2.0240 c          1 OGN       0.675100
@<TRIPOS>BOND
     1     1     2 1
     2     1    11 1
     3     1    24 2
     4     2     3 1
     5     2     8 1
     6     3     4 1
     7     3     9 1
     8     4     5 1
     9     4    10 1
    10     5     6 1
    11     5    11 1
    12     6    12 1
    13    44     7 1
    14    44     8 1
    15    44    13 2
    16    14    15 1
    17    14    18 1
    18    15    16 1
    19    15    17 2
    20    16    24 1
    21    18    19 ar
    22    18    23 ar
    23    19    20 ar
    24    20    21 ar
    25    21    22 ar
    26    22    23 ar
    27     2    25 1
    28     3    26 1
    29     4    27 1
    30     5    28 1
    31     6    29 1
    32     6    30 1
    33     7    31 1
    34     7    32 1
    35     7    33 1
    36     8    34 1
    37     9    35 1
    38    10    36 1
    39    12    37 1
    40    14    38 1
    41    19    39 1
    42    20    40 1
    43    21    41 1
    44    22    42 1
    45    23    43 1
@<TRIPOS>SUBSTRUCTURE
     1 OGN         1 TEMP              0 ****  ****    0 ROOT
