@<TRIPOS>MOLECULE
molecule
    2     1     1     0     0
SMALL
bcc


@<TRIPOS>ATOM
      1 O            0.0000     0.0000     0.0000 o          1 OH       -1.020000
      2 HO           0.9430     0.0000     0.0000 ho         1 OH        0.020000
@<TRIPOS>BOND
     1     1     2 1
@<TRIPOS>SUBSTRUCTURE
     1 OH          1 TEMP              0 ****  ****    0 ROOT
