@<TRIPOS>MOLECULE
OHA
   48    47     1     0     0
SMALL
bcc


@<TRIPOS>ATOM
      1 O2          0.6700    0.6310    0.3920 o         1 OHA     -0.853300
      2 C16         1.7580    0.0390    0.1360 c         1 OHA      0.907600
      3 O3          2.4950   -0.4890    1.0180 o         1 OHA     -0.853300
      4 C15         2.1900   -0.0600   -1.3380 c3        1 OHA     -0.194400
      5 C14         3.6520    0.2740   -1.5040 c3        1 OHA     -0.065400
      6 C13         4.1430   -0.0060   -2.9090 c3        1 OHA     -0.078400
      7 C12         5.6080    0.3400   -3.0600 c3        1 OHA     -0.079400
      8 C11         6.1130    0.0390   -4.4550 c3        1 OHA     -0.078400
      9 C10         7.5840    0.3710   -4.5880 c3        1 OHA     -0.079400
     10 C9          8.0990    0.0570   -5.9760 c3        1 OHA     -0.074400
     11 C8          9.5800    0.3520   -6.0820 c3        1 OHA     -0.181400
     12 C7         10.1270    0.1170   -7.4600 c         1 OHA      0.565100
     13 O1          9.4340    0.1600   -8.4800 o         1 OHA     -0.533100
     14 C6         11.6040   -0.1690   -7.4960 c3        1 OHA     -0.184400
     15 C5         12.1850   -0.0720   -8.8890 c3        1 OHA     -0.075400
     16 C4         13.6570   -0.4230   -8.8930 c3        1 OHA     -0.078400
     17 C3         14.2400   -0.3170  -10.2860 c3        1 OHA     -0.079400
     18 C2         15.7120   -0.6710  -10.2960 c3        1 OHA     -0.080400
     19 C1         16.2960   -0.5650  -11.6810 c3        1 OHA     -0.092100
     20 H151        1.9960   -1.1080   -1.6810 hc        1 OHA      0.019200
     21 H152        1.5600    0.6260   -1.9560 hc        1 OHA      0.019200
     22 H141        4.2430   -0.3260   -0.7610 hc        1 OHA      0.043700
     23 H142        3.8170    1.3570   -1.2600 hc        1 OHA      0.043700
     24 H131        3.9870   -1.0910   -3.1510 hc        1 OHA      0.026700
     25 H132        3.5390    0.5860   -3.6460 hc        1 OHA      0.026700
     26 H121        6.2070   -0.2420   -2.3100 hc        1 OHA      0.035700
     27 H122        5.7620    1.4270   -2.8310 hc        1 OHA      0.035700
     28 H111        5.5240    0.6300   -5.2050 hc        1 OHA      0.036700
     29 H112        5.9500   -1.0460   -4.6880 hc        1 OHA      0.036700
     30 H101        7.7440    1.4590   -4.3650 hc        1 OHA      0.036200
     31 H102        8.1680   -0.2110   -3.8280 hc        1 OHA      0.036200
     32 H91         7.5430    0.6610   -6.7410 hc        1 OHA      0.052200
     33 H92         7.9150   -1.0230   -6.2150 hc        1 OHA      0.052200
     34 H81        10.1460   -0.2760   -5.3440 hc        1 OHA      0.062200
     35 H82         9.7710    1.4290   -5.8200 hc        1 OHA      0.062200
     36 H61        12.1280    0.5470   -6.8090 hc        1 OHA      0.063200
     37 H62        11.7640   -1.2030   -7.0860 hc        1 OHA      0.063200
     38 H51        11.6230   -0.7590   -9.5740 hc        1 OHA      0.053700
     39 H52        12.0400    0.9690   -9.2810 hc        1 OHA      0.053700
     40 H41        13.7970   -1.4670   -8.5070 hc        1 OHA      0.037200
     41 H42        14.2110    0.2630   -8.2000 hc        1 OHA      0.037200
     42 H31        14.1020    0.7280  -10.6720 hc        1 OHA      0.041700
     43 H32        13.6840   -1.0010  -10.9800 hc        1 OHA      0.041700
     44 H21        16.2650    0.0140   -9.6000 hc        1 OHA      0.037200
     45 H22        15.8470   -1.7150   -9.9080 hc        1 OHA      0.037200
     46 H11        15.7730   -1.2580  -12.3830 hc        1 OHA      0.031367
     47 H12        17.3810   -0.8310  -11.6660 hc        1 OHA      0.031367
     48 H13        16.1930    0.4750  -12.0750 hc        1 OHA      0.031367
@<TRIPOS>BOND
     1    1    2 1   
     2    2    3 1   
     3    2    4 1   
     4    4    5 1   
     5    4   20 1   
     6    4   21 1   
     7    5    6 1   
     8    5   22 1   
     9    5   23 1   
    10    6    7 1   
    11    6   24 1   
    12    6   25 1   
    13    7    8 1   
    14    7   26 1   
    15    7   27 1   
    16    8    9 1   
    17    8   28 1   
    18    8   29 1   
    19    9   10 1   
    20    9   30 1   
    21    9   31 1   
    22   10   11 1   
    23   10   32 1   
    24   10   33 1   
    25   11   12 1   
    26   11   34 1   
    27   11   35 1   
    28   12   13 2   
    29   12   14 1   
    30   14   15 1   
    31   14   36 1   
    32   14   37 1   
    33   15   16 1   
    34   15   38 1   
    35   15   39 1   
    36   16   17 1   
    37   16   40 1   
    38   16   41 1   
    39   17   18 1   
    40   17   42 1   
    41   17   43 1   
    42   18   19 1   
    43   18   44 1   
    44   18   45 1   
    45   19   46 1   
    46   19   47 1   
    47   19   48 1   
@<TRIPOS>SUBSTRUCTURE
     1 OHA         1 TEMP              0 ****  ****    0 ROOT
