@<TRIPOS>MOLECULE
molecule
   48    47     1     0     0
SMALL
bcc


@<TRIPOS>ATOM
      1 O2           0.0000     0.0000     0.0000 o          1 OHA      -0.857300
      2 C16          1.3590     0.0000     0.0000 c          1 OHA       0.893600
      3 O3           2.0240     0.0000     1.0260 o          1 OHA      -0.857300
      4 C15          1.9140     0.0430    -1.4050 c3         1 OHA      -0.167400
      5 C14          3.4380     0.1670    -1.4550 c3         1 OHA      -0.072400
      6 C13          4.0560     0.1480    -2.8590 c3         1 OHA      -0.080400
      7 C12          5.5840     0.2110    -2.9200 c3         1 OHA      -0.074400
      8 C11          6.1400     0.1690    -4.3450 c3         1 OHA      -0.073400
      9 C10          7.6720     0.2220    -4.4020 c3         1 OHA      -0.079400
     10 C9           8.2830     0.1620    -5.8040 c3         1 OHA      -0.073400
     11 C8           9.8070     0.1600    -5.8040 c3         1 OHA      -0.174400
     12 C7          10.3370    -0.0050    -7.2140 c          1 OHA       0.560100
     13 O1           9.5700    -0.1140    -8.1690 o          1 OHA      -0.527100
     14 C6          11.8510     0.0120    -7.3710 c3         1 OHA      -0.174400
     15 C5          12.2900    -0.1330    -8.8270 c3         1 OHA      -0.073400
     16 C4          13.8110    -0.1930    -8.9970 c3         1 OHA      -0.077400
     17 C3          14.2470    -0.4130   -10.4490 c3         1 OHA      -0.076400
     18 C2          15.7650    -0.5330   -10.6110 c3         1 OHA      -0.082400
     19 C1          16.2100    -0.7270   -12.0520 c3         1 OHA      -0.088100
     20 H151         1.6230    -0.8640    -1.9200 hc         1 OHA       0.029700
     21 H152         1.4810     0.8910    -1.9220 hc         1 OHA       0.029700
     22 H141         3.7190     1.0960    -0.9730 hc         1 OHA       0.036700
     23 H142         3.8630    -0.6530    -0.8870 hc         1 OHA       0.036700
     24 H131         3.6620     0.9930    -3.4110 hc         1 OHA       0.025200
     25 H132         3.7370    -0.7600    -3.3560 hc         1 OHA       0.025200
     26 H121         5.9880    -0.6270    -2.3650 hc         1 OHA       0.033700
     27 H122         5.9120     1.1300    -2.4470 hc         1 OHA       0.033700
     28 H111         5.7430     1.0120    -4.8980 hc         1 OHA       0.036200
     29 H112         5.8070    -0.7460    -4.8200 hc         1 OHA       0.036200
     30 H101         7.9960     1.1430    -3.9310 hc         1 OHA       0.032200
     31 H102         8.0610    -0.6090    -3.8270 hc         1 OHA       0.032200
     32 H91          7.9380     1.0200    -6.3690 hc         1 OHA       0.050700
     33 H92          7.9350    -0.7390    -6.2950 hc         1 OHA       0.050700
     34 H81         10.1630    -0.6590    -5.1910 hc         1 OHA       0.062200
     35 H82         10.1660     1.0960    -5.3940 hc         1 OHA       0.062200
     36 H61         12.2320     0.9480    -6.9820 hc         1 OHA       0.060700
     37 H62         12.2720    -0.8040    -6.7950 hc         1 OHA       0.060700
     38 H51         11.8590    -1.0420    -9.2300 hc         1 OHA       0.051200
     39 H52         11.9110     0.7110    -9.3890 hc         1 OHA       0.051200
     40 H41         14.1960    -1.0050    -8.3930 hc         1 OHA       0.035700
     41 H42         14.2370     0.7370    -8.6430 hc         1 OHA       0.035700
     42 H31         13.7860    -1.3210   -10.8170 hc         1 OHA       0.040200
     43 H32         13.8990     0.4220   -11.0460 hc         1 OHA       0.040200
     44 H21         16.1090    -1.3770   -10.0260 hc         1 OHA       0.035700
     45 H22         16.2260     0.3680   -10.2250 hc         1 OHA       0.035700
     46 H11         15.7650    -1.6310   -12.4480 hc         1 OHA       0.032367
     47 H12         17.2890    -0.8090   -12.0880 hc         1 OHA       0.032367
     48 H13         15.8920     0.1220   -12.6450 hc         1 OHA       0.032367
@<TRIPOS>BOND
     1     3     2 1
     2     1     2 1
     3     2     4 1
     4     4     5 1
     5     5     6 1
     6     6     7 1
     7     8     7 1
     8     8     9 1
     9     9    10 1
    10    10    11 1
    11    13    12 2
    12    11    12 1
    13    12    14 1
    14    14    15 1
    15    15    16 1
    16    16    17 1
    17    18    19 1
    18    18    17 1
    19     4    20 1
    20     4    21 1
    21     5    22 1
    22     5    23 1
    23     6    24 1
    24     6    25 1
    25     7    26 1
    26     7    27 1
    27     8    28 1
    28     8    29 1
    29     9    30 1
    30     9    31 1
    31    10    32 1
    32    10    33 1
    33    11    34 1
    34    11    35 1
    35    14    36 1
    36    14    37 1
    37    15    38 1
    38    15    39 1
    39    16    40 1
    40    16    41 1
    41    17    42 1
    42    17    43 1
    43    18    44 1
    44    18    45 1
    45    19    46 1
    46    19    47 1
    47    19    48 1
@<TRIPOS>SUBSTRUCTURE
     1 OHA         1 TEMP              0 ****  ****    0 ROOT
