@<TRIPOS>MOLECULE
molecule
   18    18     1     0     0
SMALL
bcc


@<TRIPOS>ATOM
      1 O            0.0000     0.0000     0.0000 o          1 OHB      -0.395100
      2 C            1.2160     0.0000     0.0000 c          1 OHB       0.502700
      3 N            1.8910     0.0000     1.1660 nz         1 OHB      -0.678400
      4 C1           1.9530    -0.0070    -1.2790 ca         1 OHB      -0.243600
      5 C6           1.2560    -0.0130    -2.4940 ca         1 OHB       0.227100
      6 O1          -0.1000    -0.0120    -2.5010 oh         1 OHB      -0.482100
      7 C5           1.9590    -0.0190    -3.6900 ca         1 OHB      -0.185000
      8 C4           3.3390    -0.0190    -3.6810 ca         1 OHB      -0.025000
      9 C3           4.0330    -0.0130    -2.4810 ca         1 OHB      -0.129000
     10 C2           3.3500    -0.0010    -1.2830 ca         1 OHB      -0.096000
     11 H1           2.4660     0.8170     1.2190 hn         1 OHB       0.475800
     12 H2           1.2410    -0.0000     1.9280 hn         1 OHB       0.475800
     13 H3          -0.4120     0.6820    -3.0580 ho         1 OHB       0.453000
     14 H4           1.4240    -0.0240    -4.6320 ha         1 OHB       0.174000
     15 H5           3.8840    -0.0250    -4.6170 ha         1 OHB       0.169000
     16 H6           5.1160    -0.0100    -2.4840 ha         1 OHB       0.165000
     17 H7           3.8960     0.0030    -0.3480 ha         1 OHB       0.114000
     18 HN3          2.4660    -0.8170     1.2190 hn         1 OHB       0.475800
@<TRIPOS>BOND
     1     3     2 1
     2     2     1 2
     3     2     4 1
     4     6     5 1
     5     4     5 ar
     6     4    10 ar
     7     5     7 ar
     8    10     9 ar
     9     7     8 ar
    10     9     8 ar
    11     3    11 1
    12     3    12 1
    13     6    13 1
    14     7    14 1
    15     8    15 1
    16     9    16 1
    17    10    17 1
    18    18     3 1
@<TRIPOS>SUBSTRUCTURE
     1 OHB         1 TEMP              0 ****  ****    0 ROOT
