@<TRIPOS>MOLECULE
molecule
    9     8     1     0     0
SMALL
bcc


@<TRIPOS>ATOM
      1 C1           0.0000     0.0000     0.0000 c3         1 OHE      -0.091100
      2 C2           1.5290     0.0000     0.0000 c3         1 OHE       0.138400
      3 O            2.0060     0.0000     1.3470 oh         1 OHE      -0.611800
      4 H11         -0.3610    -0.0000    -1.0210 hc         1 OHE       0.043367
      5 H12         -0.3610     0.8850     0.5110 hc         1 OHE       0.043367
      6 H13         -0.3610    -0.8850     0.5110 hc         1 OHE       0.043367
      7 H21          1.8900    -0.8840    -0.5110 h1         1 OHE       0.016700
      8 H22          1.8900     0.8840    -0.5110 h1         1 OHE       0.016700
      9 HO           2.9490    -0.0000     1.3460 ho         1 OHE       0.400000
@<TRIPOS>BOND
     1     1     2 1
     2     1     4 1
     3     1     5 1
     4     1     6 1
     5     2     3 1
     6     2     7 1
     7     2     8 1
     8     3     9 1
@<TRIPOS>SUBSTRUCTURE
     1 OHE         1 TEMP              0 ****  ****    0 ROOT
