@<TRIPOS>MOLECULE
OHE
    9     8     1     0     0
SMALL
bcc


@<TRIPOS>ATOM
      1 C1          0.0170    0.0000    0.0120 c3        1 OHE     -0.097100
      2 C2          1.5280   -0.0000   -0.0040 c3        1 OHE      0.131400
      3 O           1.9650    0.0000    1.3470 oh        1 OHE     -0.602800
      4 H11        -0.3660   -0.9040    0.5430 hc        1 OHE      0.044367
      5 H12        -0.3670    0.0000   -1.0350 hc        1 OHE      0.044367
      6 H13        -0.3650    0.9050    0.5430 hc        1 OHE      0.044367
      7 H21         1.9190   -0.9130   -0.5290 h1        1 OHE      0.018700
      8 H22         1.9200    0.9120   -0.5300 h1        1 OHE      0.018700
      9 HO          2.9290   -0.0000    1.3250 ho        1 OHE      0.398000
@<TRIPOS>BOND
     1    1    2 1   
     2    1    4 1   
     3    1    5 1   
     4    1    6 1   
     5    2    3 1   
     6    2    7 1   
     7    2    8 1   
     8    3    9 1   
@<TRIPOS>SUBSTRUCTURE
     1 OHE         1 TEMP              0 ****  ****    0 ROOT
