@<TRIPOS>MOLECULE
molecule
   82    88     1     0     0
SMALL
bcc


@<TRIPOS>ATOM
      1 O6           0.0000     0.0000     0.0000 o          1 OHH      -0.616100
      2 P1           1.5430     6.5400    -6.2050 p5         1 OHH       1.000700
      3 O1           0.0350     6.8340    -6.6870 o          1 OHH      -0.885833
      4 O3           2.2050     7.8150    -5.8530 o          1 OHH      -0.885833
      5 O2           1.5150     5.5750    -4.9170 o          1 OHH      -0.885833
      6 C9           2.4640     5.7290    -7.5530 c3         1 OHH      -0.265600
      7 O4           3.8400     3.8300    -7.2920 o          1 OHH      -0.545100
      8 C17          6.5150     8.7820    -5.7710 ca         1 OHH      -0.088000
      9 C16          7.3560     9.3890    -4.8880 ca         1 OHH      -0.163000
     10 C15          7.6710     8.7890    -3.6710 ca         1 OHH      -0.150000
     11 C14          7.1480     7.5790    -3.3310 ca         1 OHH      -0.124000
     12 C4B          6.2770     6.9200    -4.2170 ca         1 OHH      -0.025000
     13 C8B          5.9560     7.5310    -5.4560 ca         1 OHH      -0.016000
     14 C18          5.0890     6.8920    -6.3580 ca         1 OHH      -0.040000
     15 C11          4.5480     5.6580    -6.0390 ca         1 OHH      -0.068600
     16 C12          4.8770     5.0310    -4.7570 ca         1 OHH      -0.034600
     17 C13          5.7300     5.6690    -3.8800 ca         1 OHH      -0.143000
     18 O5           4.4280     2.7750    -5.1640 o          1 OHH      -0.605100
     19 C1          -0.1380     2.9530    -9.5590 ca         1 OHH      -0.184000
     20 C2          -0.1410     3.0690    -8.2050 ca         1 OHH      -0.094000
     21 C3           0.7050     3.9700    -7.5600 ca         1 OHH      -0.089000
     22 C4           1.5580     4.7600    -8.2690 ca         1 OHH       0.045700
     23 C4A          1.5840     4.6710    -9.6700 ca         1 OHH      -0.025000
     24 C8A          0.7290     3.7510   -10.3250 ca         1 OHH      -0.033000
     25 C8           0.7610     3.6580   -11.7260 ca         1 OHH      -0.133000
     26 C7           1.6140     4.4470   -12.4350 ca         1 OHH      -0.156000
     27 C6           2.4590     5.3490   -11.7900 ca         1 OHH      -0.180000
     28 C5           2.4560     5.4650   -10.4340 ca         1 OHH      -0.076000
     29 N1           3.6340     3.5620    -3.2450 n          1 OHH      -0.460800
     30 C20          3.3700     4.7220    -2.3920 c3         1 OHH       0.097300
     31 C24          1.1710     0.8430    -2.2980 c3         1 OHH       0.094000
     32 N2           1.8900     0.4170    -1.0890 n          1 OHH      -0.472800
     33 C23          3.3580     0.4560    -1.0910 c3         1 OHH       0.094000
     34 C22          3.8140     1.8600    -1.4980 c3         1 OHH      -0.112400
     35 C21          3.1740     2.2320    -2.8370 c3         1 OHH       0.122700
     36 C25          1.6510     2.2430    -2.6910 c3         1 OHH      -0.112400
     37 C26          1.2150     0.0000     0.0000 c          1 OHH       0.664700
     38 C29          2.2320    -0.4050     3.5830 ca         1 OHH      -0.136000
     39 C28          1.5710     0.0000     2.4700 ca         1 OHH      -0.075000
     40 C27          1.9530    -0.4580     1.1960 ca         1 OHH      -0.117600
     41 C34          3.0130    -1.3360     1.0550 ca         1 OHH      -0.095000
     42 C8C          3.7130    -1.7620     2.1950 ca         1 OHH      -0.045000
     43 C4C          3.3170    -1.2930     3.4720 ca         1 OHH      -0.026000
     44 C30          4.0170    -1.7270     4.6100 ca         1 OHH      -0.120000
     45 C31          5.0630    -2.5880     4.4720 ca         1 OHH      -0.131000
     46 C32          5.4520    -3.0490     3.2150 ca         1 OHH      -0.139000
     47 C33          4.7980    -2.6500     2.0910 ca         1 OHH      -0.106000
     48 H9           2.8160     6.4770    -8.2520 hc         1 OHH       0.074700
     49 H17          6.2800     9.2600    -6.7140 ha         1 OHH       0.129000
     50 H16          7.7850    10.3530    -5.1350 ha         1 OHH       0.103000
     51 H15          8.3420     9.2920    -2.9850 ha         1 OHH       0.099000
     52 H14          7.4010     7.1250    -2.3810 ha         1 OHH       0.111000
     53 H18          4.9010     7.3300    -7.3310 ha         1 OHH       0.142000
     54 H13          5.9750     5.2080    -2.9310 ha         1 OHH       0.119000
     55 H1          -0.8010     2.2470   -10.0460 ha         1 OHH       0.094000
     56 H2          -0.8100     2.4520    -7.6170 ha         1 OHH       0.104000
     57 H3           0.6830     4.0430    -6.4790 ha         1 OHH       0.199000
     58 H8           0.1090     2.9620   -12.2400 ha         1 OHH       0.100000
     59 H7           1.6360     4.3740   -13.5160 ha         1 OHH       0.090000
     60 H6           3.1290     5.9660   -12.3770 ha         1 OHH       0.097000
     61 H5           3.1190     6.1700    -9.9470 ha         1 OHH       0.137000
     62 H201         2.4280     4.5830    -1.8750 h1         1 OHH       0.047033
     63 H202         4.1680     4.8250    -1.6670 h1         1 OHH       0.047033
     64 H203         3.3190     5.6150    -3.0030 h1         1 OHH       0.047033
     65 H241         0.1070     0.8690    -2.0960 h1         1 OHH       0.052200
     66 H242         1.3760     0.1490    -3.1040 h1         1 OHH       0.052200
     67 H231         3.7280     0.2290    -0.0980 h1         1 OHH       0.052200
     68 H232         3.7390    -0.2680    -1.8000 h1         1 OHH       0.052200
     69 H221         4.8920     1.8740    -1.5980 hc         1 OHH       0.069200
     70 H222         3.5060     2.5720    -0.7420 hc         1 OHH       0.069200
     71 H21          3.4580     1.5020    -3.5850 h1         1 OHH       0.082700
     72 H251         1.3670     2.9510    -1.9220 hc         1 OHH       0.069200
     73 H252         1.2010     2.5260    -3.6350 hc         1 OHH       0.069200
     74 H29          1.9260    -0.0440     4.5570 ha         1 OHH       0.130000
     75 H28          0.7360     0.6850     2.5640 ha         1 OHH       0.151000
     76 H34          3.2090    -1.7980     0.0960 ha         1 OHH       0.145000
     77 H30          3.7260    -1.3780     5.5930 ha         1 OHH       0.127000
     78 H31          5.6000    -2.9210     5.3520 ha         1 OHH       0.119000
     79 H32          6.2880    -3.7330     3.1330 ha         1 OHH       0.122000
     80 H33          5.1110    -3.0150     1.1200 ha         1 OHH       0.133000
     81 C19          4.3000     3.7170    -4.4060 c          1 OHH       0.694700
     82 C10          3.6400     4.9840    -6.9780 c          1 OHH       0.608700
@<TRIPOS>BOND
     1     1    37 2
     2     2     3 1
     3     2     4 1
     4     2     5 1
     5     2     6 1
     6     6    82 1
     7     6    22 1
     8     6    48 1
     9     7    82 2
    10    82    15 1
    11     8     9 ar
    12     8    13 ar
    13     8    49 1
    14     9    10 ar
    15     9    50 1
    16    10    11 ar
    17    10    51 1
    18    11    12 ar
    19    11    52 1
    20    12    13 ar
    21    12    17 ar
    22    13    14 ar
    23    14    15 ar
    24    14    53 1
    25    15    16 ar
    26    16    17 ar
    27    16    81 1
    28    17    54 1
    29    18    81 2
    30    81    29 1
    31    19    20 ar
    32    19    24 ar
    33    19    55 1
    34    20    21 ar
    35    20    56 1
    36    21    22 ar
    37    21    57 1
    38    22    23 ar
    39    23    24 ar
    40    23    28 ar
    41    24    25 ar
    42    25    26 ar
    43    25    58 1
    44    26    27 ar
    45    26    59 1
    46    27    28 ar
    47    27    60 1
    48    28    61 1
    49    29    30 1
    50    29    35 1
    51    30    62 1
    52    30    63 1
    53    30    64 1
    54    31    32 1
    55    31    36 1
    56    31    65 1
    57    31    66 1
    58    32    33 1
    59    32    37 1
    60    33    34 1
    61    33    67 1
    62    33    68 1
    63    34    35 1
    64    34    69 1
    65    34    70 1
    66    35    36 1
    67    35    71 1
    68    36    72 1
    69    36    73 1
    70    37    40 1
    71    38    39 ar
    72    38    43 ar
    73    38    74 1
    74    39    40 ar
    75    39    75 1
    76    40    41 ar
    77    41    42 ar
    78    41    76 1
    79    42    43 ar
    80    42    47 ar
    81    43    44 ar
    82    44    45 ar
    83    44    77 1
    84    45    46 ar
    85    45    78 1
    86    46    47 ar
    87    46    79 1
    88    47    80 1
@<TRIPOS>SUBSTRUCTURE
     1 OHH         1 TEMP              0 ****  ****    0 ROOT
