@<TRIPOS>MOLECULE
molecule
   41    42     1     0     0
SMALL
bcc


@<TRIPOS>ATOM
      1 C            0.0000     0.0000     0.0000 c          1 OHL       0.636100
      2 N            0.2000    -0.0010     2.4180 n3         1 OHL      -0.786500
      3 O            1.2130     0.0000     0.0000 o          1 OHL      -0.564100
      4 CA          -0.7530     0.0000     1.3050 c3         1 OHL       0.165800
      5 CAA          6.6450     3.0000     0.7130 c3         1 OHL       0.126700
      6 OAC         -0.4080     2.3490     2.8670 o          1 OHL      -0.642300
      7 OAD          1.0820     1.1040     4.4420 o          1 OHL      -0.642300
      8 OAE          0.0340     0.0060    -2.3940 oh         1 OHL      -0.360100
      9 CAF         -0.9790    -2.1610     6.1350 ca         1 OHL       0.415200
     10 CAG         -2.0280    -3.3050     4.4320 ca         1 OHL       0.415200
     11 CAH         -0.0880    -1.5840     5.2500 ca         1 OHL      -0.239300
     12 CAI         -1.1800    -2.7570     3.4880 ca         1 OHL      -0.239300
     13 CAJ          3.0020     3.3260     0.4900 ca         1 OHL      -0.208500
     14 CAK          4.4330     2.1210     1.9950 ca         1 OHL      -0.208500
     15 CAL          1.8960     2.8560     1.1700 ca         1 OHL       0.017500
     16 CAM          3.3240     1.6630     2.6790 ca         1 OHL       0.017500
     17 CAO          0.7590    -1.2640     2.9030 c3         1 OHL       0.288100
     18 NAP         -1.9100    -2.9930     5.7080 nb         1 OHL      -0.687000
     19 NAQ         -0.6740     0.0060    -1.1680 ns         1 OHL      -0.473400
     20 CAT         -0.1860    -1.8840     3.9010 ca         1 OHL      -0.087300
     21 CAU          4.2760     2.9590     0.9010 ca         1 OHL       0.198100
     22 CAV          2.0560     2.0250     2.2640 ca         1 OHL      -0.343500
     23 SAX          0.6420     1.4280     3.1290 sy         1 OHL       1.432200
     24 HA          -1.3760    -0.8840     1.3620 h1         1 OHL       0.086200
     25 HAA         -1.3760     0.8850     1.3620 h1         1 OHL       0.086200
     26 HAAA         6.7710     3.3290     1.7380 h1         1 OHL       0.045033
     27 HAAB         7.4280     3.4260     0.0980 h1         1 OHL       0.045033
     28 HAAC         6.6990     1.9190     0.6710 h1         1 OHL       0.045033
     29 HAF         -0.9110    -1.9310     7.1910 h4         1 OHL       0.024100
     30 HAG         -2.8070    -3.9900     4.1180 h4         1 OHL       0.024100
     31 HAH          0.6760    -0.9040     5.6070 ha         1 OHL       0.150500
     32 HAI         -1.2840    -3.0150     2.4410 ha         1 OHL       0.150500
     33 HAJ          2.8750     3.9790    -0.3660 ha         1 OHL       0.144000
     34 HAK          5.4260     1.8340     2.3200 ha         1 OHL       0.144000
     35 HAL          0.9010     3.1400     0.8480 ha         1 OHL       0.145000
     36 HAM          3.4470     1.0100     3.5340 ha         1 OHL       0.145000
     37 HAO          1.7140    -1.0770     3.3790 h1         1 OHL       0.069700
     38 HAOA         0.8980    -1.9410     2.0690 h1         1 OHL       0.069700
     39 H16         -0.5790     0.0090    -3.1110 ho         1 OHL       0.400000
     40 H17         -1.6750     0.0090    -1.1680 hn         1 OHL       0.319500
     41 OAR          5.3650     3.4190     0.2340 os         1 OHL      -0.323900
@<TRIPOS>BOND
     1     1     4 1
     2     2    23 1
     3     2    17 1
     4     3     1 2
     5     4     2 1
     6     4    24 1
     7     4    25 1
     8     5    26 1
     9     5    27 1
    10     5    28 1
    11     8    19 1
    12     9    11 ar
    13     9    29 1
    14    10    12 ar
    15    10    18 ar
    16    10    30 1
    17    11    31 1
    18    12    20 ar
    19    12    32 1
    20    13    15 ar
    21    13    33 1
    22    14    16 ar
    23    14    34 1
    24    15    22 ar
    25    15    35 1
    26    16    22 ar
    27    16    36 1
    28    17    37 1
    29    17    38 1
    30    18     9 ar
    31    19     1 1
    32    41     5 1
    33    41    21 1
    34    20    11 ar
    35    20    17 1
    36    21    13 ar
    37    21    14 ar
    38    22    23 1
    39    23     6 2
    40    23     7 2
    41     8    39 1
    42    19    40 1
@<TRIPOS>SUBSTRUCTURE
     1 OHL         1 TEMP              0 ****  ****    0 ROOT
