@<TRIPOS>MOLECULE
OHL
   41    42     1     0     0
SMALL
bcc


@<TRIPOS>ATOM
      1 C            0.0000     0.0000     0.0000 c          1 OHL       0.537100
      2 N            0.2000    -0.0010     2.4180 n3         1 OHL      -0.489500
      3 O            1.2130     0.0000     0.0000 o          1 OHL      -0.618100
      4 CA          -0.7530     0.0000     1.3050 c3         1 OHL       0.155800
      5 CAA          6.6450     3.0000     0.7130 c3         1 OHL       0.245700
      6 OAC         -0.4080     2.3490     2.8670 o          1 OHL      -0.595300
      7 OAD          1.0820     1.1040     4.4420 o          1 OHL      -0.595300
      8 OAE          0.0340     0.0060    -2.3940 oh         1 OHL      -0.438100
      9 CAF         -0.9790    -2.1610     6.1350 ca         1 OHL       0.398700
     10 CAG         -2.0280    -3.3050     4.4320 ca         1 OHL       0.398700
     11 CAH         -0.0880    -1.5840     5.2500 ca         1 OHL      -0.207300
     12 CAI         -1.1800    -2.7570     3.4880 ca         1 OHL      -0.207300
     13 CAJ          3.0020     3.3260     0.4900 ca         1 OHL      -0.204500
     14 CAK          4.4330     2.1210     1.9950 ca         1 OHL      -0.204500
     15 CAL          1.8960     2.8560     1.1700 ca         1 OHL       0.056000
     16 CAM          3.3240     1.6630     2.6790 ca         1 OHL       0.056000
     17 CAO          0.7590    -1.2640     2.9030 c3         1 OHL       0.298100
     18 NAP         -1.9100    -2.9930     5.7080 nb         1 OHL      -0.582000
     19 NAQ         -0.6740     0.0060    -1.1680 ns         1 OHL      -0.054400
     20 CAT         -0.1860    -1.8840     3.9010 ca         1 OHL      -0.102300
     21 CAU          4.2760     2.9590     0.9010 ca         1 OHL       0.206100
     22 CAV          2.0560     2.0250     2.2640 ca         1 OHL      -0.188500
     23 SAX          0.6420     1.4280     3.1290 sy         1 OHL       1.056200
     24 HA          -1.3760    -0.8840     1.3620 h1         1 OHL       0.046200
     25 HAA         -1.3760     0.8850     1.3620 h1         1 OHL       0.046200
     26 HAAA         6.7710     3.3290     1.7380 h1         1 OHL      -0.000967
     27 HAAB         7.4280     3.4260     0.0980 h1         1 OHL      -0.000967
     28 HAAC         6.6990     1.9190     0.6710 h1         1 OHL      -0.000967
     29 HAF         -0.9110    -1.9310     7.1910 h4         1 OHL      -0.020900
     30 HAG         -2.8070    -3.9900     4.1180 h4         1 OHL      -0.020900
     31 HAH          0.6760    -0.9040     5.6070 ha         1 OHL       0.129000
     32 HAI         -1.2840    -3.0150     2.4410 ha         1 OHL       0.129000
     33 HAJ          2.8750     3.9790    -0.3660 ha         1 OHL       0.122000
     34 HAK          5.4260     1.8340     2.3200 ha         1 OHL       0.122000
     35 HAL          0.9010     3.1400     0.8480 ha         1 OHL       0.114000
     36 HAM          3.4470     1.0100     3.5340 ha         1 OHL       0.114000
     37 HAO          1.7140    -1.0770     3.3790 h1         1 OHL       0.029700
     38 HAOA         0.8980    -1.9410     2.0690 h1         1 OHL       0.029700
     39 H16         -0.5790     0.0090    -3.1110 ho         1 OHL       0.394000
     40 H17         -1.6750     0.0090    -1.1680 hn         1 OHL       0.155500
     41 OAR          5.3650     3.4190     0.2340 os         1 OHL      -0.306900
@<TRIPOS>BOND
     1     1     3 2   
     2     1     4 1   
     3     1    19 1   
     4     2     4 1   
     5     2    17 1   
     6     2    23 1   
     7     4    24 1   
     8     4    25 1   
     9     5    26 1   
    10     5    27 1   
    11     5    28 1   
    12     5    41 1   
    13     6    23 2   
    14     7    23 2   
    15     8    19 1   
    16     8    39 1   
    17     9    11 ar  
    18     9    18 ar  
    19     9    29 1   
    20    10    12 ar  
    21    10    18 ar  
    22    10    30 1   
    23    11    20 ar  
    24    11    31 1   
    25    12    20 ar  
    26    12    32 1   
    27    13    15 ar  
    28    13    21 ar  
    29    13    33 1   
    30    14    16 ar  
    31    14    21 ar  
    32    14    34 1   
    33    15    22 ar  
    34    15    35 1   
    35    16    22 ar  
    36    16    36 1   
    37    17    20 1   
    38    17    37 1   
    39    17    38 1   
    40    19    40 1   
    41    21    41 1   
    42    22    23 1   
@<TRIPOS>SUBSTRUCTURE
     1 OHL         1 TEMP              0 ****  ****    0 ROOT
