@<TRIPOS>MOLECULE
molecule
   49    49     1     0     0
SMALL
bcc


@<TRIPOS>ATOM
      1 C21          0.0000     0.0000     0.0000 c3         1 OHM      -0.089100
      2 C20          1.5210     0.0000     0.0000 c3         1 OHM      -0.080400
      3 C19          2.0780     0.0000     1.4230 c3         1 OHM      -0.076400
      4 C18          3.6050     0.0920     1.4810 c3         1 OHM      -0.078400
      5 C17          4.2270     0.0380     2.8800 c3         1 OHM      -0.075400
      6 C16          5.7530     0.1590     2.8730 c3         1 OHM      -0.073400
      7 C15          6.3200     0.1040     4.2940 c3         1 OHM      -0.076400
      8 C14          7.8460     0.2520     4.3470 c3         1 OHM      -0.073400
      9 C13          8.4500     0.1190     5.7430 c3         1 OHM      -0.167400
     10 C11          9.9560     0.3180     5.7670 c          1 OHM       0.570100
     11 O12         10.6040     0.5780     4.7540 o          1 OHM      -0.495100
     12 C10         10.6360     0.1880     7.1130 c3         1 OHM      -0.264400
     13 C8          11.8870     1.0260     7.2470 c          1 OHM       0.685100
     14 O9          12.0260     2.1030     6.6740 o          1 OHM      -0.565100
     15 N7          12.8140     0.4410     8.0940 ns         1 OHM      -0.584900
     16 C1          14.0750     1.0390     8.4090 c3         1 OHM       0.038700
     17 C5          13.9570     2.3420     9.1940 c3         1 OHM      -0.116400
     18 C4          15.2360     2.3720    10.0100 c3         1 OHM       0.101000
     19 N3          15.5120     0.9810    10.2460 ns         1 OHM      -0.601900
     20 C2          14.8540     0.1430     9.3480 c          1 OHM       0.694500
     21 O6          14.9250    -1.0750     9.2930 o          1 OHM      -0.611500
     22 H211        -0.3610    -0.8730     0.5300 hc         1 OHM       0.033033
     23 H212        -0.3610     0.8950     0.4920 hc         1 OHM       0.033033
     24 H213        -0.3610    -0.0220    -1.0210 hc         1 OHM       0.033033
     25 H201         1.8750     0.8820    -0.5190 hc         1 OHM       0.038700
     26 H202         1.8750    -0.8820    -0.5190 hc         1 OHM       0.038700
     27 H191         1.6590     0.8440     1.9590 hc         1 OHM       0.037200
     28 H192         1.7670    -0.9130     1.9170 hc         1 OHM       0.037200
     29 H181         4.0140    -0.7240     0.8990 hc         1 OHM       0.036700
     30 H182         3.9040     1.0240     1.0160 hc         1 OHM       0.036700
     31 H171         3.9560    -0.9020     3.3430 hc         1 OHM       0.037200
     32 H172         3.8180     0.8480     3.4720 hc         1 OHM       0.037200
     33 H161         6.0320     1.1000     2.4150 hc         1 OHM       0.042700
     34 H162         6.1700    -0.6550     2.2920 hc         1 OHM       0.042700
     35 H151         6.0490    -0.8450     4.7400 hc         1 OHM       0.036700
     36 H152         5.8740     0.9020     4.8760 hc         1 OHM       0.036700
     37 H141         8.2850    -0.5060     3.7100 hc         1 OHM       0.053200
     38 H142         8.1090     1.2260     3.9520 hc         1 OHM       0.053200
     39 H131         8.2240    -0.8690     6.1270 hc         1 OHM       0.061200
     40 H132         7.9930     0.8570     6.3910 hc         1 OHM       0.061200
     41 H101        10.8990    -0.8520     7.2680 hc         1 OHM       0.080200
     42 H102         9.9360     0.4860     7.8830 hc         1 OHM       0.080200
     43 HN7         12.5910    -0.4440     8.5060 hn         1 OHM       0.330500
     44 H1          14.6460     1.2060     7.5040 h1         1 OHM       0.091700
     45 H51         13.9160     3.1900     8.5210 hc         1 OHM       0.071700
     46 H52         13.0910     2.3190     9.8450 hc         1 OHM       0.071700
     47 H41         15.0770     2.8920    10.9470 h1         1 OHM       0.047700
     48 H42         16.0380     2.8280     9.4430 h1         1 OHM       0.047700
     49 HN3         16.1120     0.6510    10.9750 hn         1 OHM       0.334500
@<TRIPOS>BOND
     1     1     2 1
     2     1    22 1
     3     1    23 1
     4     1    24 1
     5     2     3 1
     6     2    25 1
     7     2    26 1
     8     3     4 1
     9     3    27 1
    10     3    28 1
    11     4     5 1
    12     4    29 1
    13     4    30 1
    14     5     6 1
    15     5    31 1
    16     5    32 1
    17     6     7 1
    18     6    33 1
    19     6    34 1
    20     7     8 1
    21     7    35 1
    22     7    36 1
    23     8     9 1
    24     8    37 1
    25     8    38 1
    26     9    10 1
    27     9    39 1
    28     9    40 1
    29    10    12 1
    30    10    11 2
    31    12    13 1
    32    12    41 1
    33    12    42 1
    34    13    14 2
    35    13    15 1
    36    15    16 1
    37    15    43 1
    38    16    20 1
    39    16    17 1
    40    16    44 1
    41    17    18 1
    42    17    45 1
    43    17    46 1
    44    18    19 1
    45    18    47 1
    46    18    48 1
    47    19    20 1
    48    19    49 1
    49    20    21 2
@<TRIPOS>SUBSTRUCTURE
     1 OHM         1 TEMP              0 ****  ****    0 ROOT
