@<TRIPOS>MOLECULE
molecule
   48    48     1     0     0
SMALL
bcc


@<TRIPOS>ATOM
      1 C21          0.0000     0.0000     0.0000 c3         1 OHN      -0.089100
      2 C20          1.5210     0.0000     0.0000 c3         1 OHN      -0.080400
      3 C19          2.0770     0.0000     1.4240 c3         1 OHN      -0.076400
      4 C18          3.6050     0.0950     1.4820 c3         1 OHN      -0.078400
      5 C17          4.2260     0.0400     2.8810 c3         1 OHN      -0.075400
      6 C16          5.7510     0.1620     2.8750 c3         1 OHN      -0.073400
      7 C15          6.3180     0.1080     4.2960 c3         1 OHN      -0.076400
      8 C14          7.8430     0.2570     4.3490 c3         1 OHN      -0.073400
      9 C13          8.4480     0.1230     5.7460 c3         1 OHN      -0.166400
     10 C11          9.9540     0.3230     5.7710 c          1 OHN       0.570100
     11 O12         10.6010     0.5850     4.7580 o          1 OHN      -0.492100
     12 C10         10.6330     0.1940     7.1150 c3         1 OHN      -0.264400
     13 C8          11.8820     1.0330     7.2520 c          1 OHN       0.688100
     14 O9          12.0210     2.1110     6.6790 o          1 OHN      -0.559100
     15 N7          12.8100     0.4480     8.0990 ns         1 OHN      -0.580900
     16 C1          14.0710     1.0480     8.4130 c3         1 OHN       0.015700
     17 C5          14.0540     1.8250     9.7090 c3         1 OHN      -0.150400
     18 C4          15.4820     1.6960    10.1750 c3         1 OHN       0.129400
     19 C2          15.0970    -0.0160     8.7020 c          1 OHN       0.707600
     20 O6          15.2360    -1.0700     8.1020 o          1 OHN      -0.548500
     21 OAP         15.8990     0.4000     9.7320 os         1 OHN      -0.395900
     22 H211        -0.3610     0.8950     0.4910 hc         1 OHN       0.033033
     23 H212        -0.3610    -0.8730     0.5300 hc         1 OHN       0.033033
     24 H213        -0.3610    -0.0220    -1.0210 hc         1 OHN       0.033033
     25 H201         1.8750    -0.8820    -0.5190 hc         1 OHN       0.038700
     26 H202         1.8750     0.8820    -0.5190 hc         1 OHN       0.038700
     27 H191         1.7680    -0.9140     1.9160 hc         1 OHN       0.037200
     28 H192         1.6570     0.8430     1.9590 hc         1 OHN       0.037200
     29 H181         4.0160    -0.7210     0.8990 hc         1 OHN       0.036700
     30 H182         3.9030     1.0270     1.0170 hc         1 OHN       0.036700
     31 H171         3.8160     0.8500     3.4740 hc         1 OHN       0.037200
     32 H172         3.9550    -0.9010     3.3440 hc         1 OHN       0.037200
     33 H161         6.1690    -0.6520     2.2950 hc         1 OHN       0.043200
     34 H162         6.0300     1.1040     2.4170 hc         1 OHN       0.043200
     35 H151         5.8710     0.9050     4.8780 hc         1 OHN       0.036200
     36 H152         6.0470    -0.8420     4.7410 hc         1 OHN       0.036200
     37 H141         8.1050     1.2310     3.9540 hc         1 OHN       0.053700
     38 H142         8.2830    -0.5010     3.7120 hc         1 OHN       0.053700
     39 H131         8.2230    -0.8650     6.1280 hc         1 OHN       0.061200
     40 H132         7.9900     0.8600     6.3940 hc         1 OHN       0.061200
     41 H101        10.8970    -0.8450     7.2700 hc         1 OHN       0.080200
     42 H102         9.9320     0.4910     7.8860 hc         1 OHN       0.080200
     43 H7          12.5870    -0.4360     8.5100 hn         1 OHN       0.325500
     44 H1          14.4070     1.6800     7.6010 h1         1 OHN       0.115700
     45 H5C1        13.3750     1.3710    10.4200 hc         1 OHN       0.074200
     46 H5C2        13.8010     2.8630     9.5300 hc         1 OHN       0.074200
     47 H4C1        16.0960     2.4640     9.7190 h1         1 OHN       0.067200
     48 H4C2        15.5310     1.7570    11.2550 h1         1 OHN       0.067200
@<TRIPOS>BOND
     1     1     2 1
     2     2     3 1
     3     3     4 1
     4     4     5 1
     5     5     6 1
     6     6     7 1
     7     7     8 1
     8     8     9 1
     9     9    10 1
    10    10    11 2
    11    10    12 1
    12    12    13 1
    13    13    14 2
    14    13    15 1
    15    15    16 1
    16    16    17 1
    17    17    18 1
    18    16    19 1
    19    19    20 2
    20    18    21 1
    21    19    21 1
    22     1    22 1
    23     1    23 1
    24     1    24 1
    25     2    25 1
    26     2    26 1
    27     3    27 1
    28     3    28 1
    29     4    29 1
    30     4    30 1
    31     5    31 1
    32     5    32 1
    33     6    33 1
    34     6    34 1
    35     7    35 1
    36     7    36 1
    37     8    37 1
    38     8    38 1
    39     9    39 1
    40     9    40 1
    41    12    41 1
    42    12    42 1
    43    15    43 1
    44    16    44 1
    45    17    45 1
    46    17    46 1
    47    18    47 1
    48    18    48 1
@<TRIPOS>SUBSTRUCTURE
     1 OHN         1 TEMP              0 ****  ****    0 ROOT
