@<TRIPOS>MOLECULE
molecule
   22    22     1     0     0
SMALL
bcc


@<TRIPOS>ATOM
      1 N            0.0000     0.0000     0.0000 ns         1 OHO      -0.630900
      2 C           -0.6740     0.5850    -1.0090 c          1 OHO       0.990600
      3 O           -0.0670     1.1110    -1.9200 o          1 OHO      -0.875800
      4 OXT         -2.0210     0.5840    -1.0110 o          1 OHO      -0.875800
      5 C1           1.4640     0.0000     0.0000 c3         1 OHO       0.133700
      6 C2           1.9740     0.0000     1.4430 c3         1 OHO      -0.093900
      7 C3           3.5030    -0.0010     1.4430 c3         1 OHO      -0.078400
      8 C4           4.0140    -1.2480     0.7210 c3         1 OHO      -0.078400
      9 C5           3.5040    -1.2460    -0.7210 c3         1 OHO      -0.078400
     10 C6           1.9750    -1.2470    -0.7220 c3         1 OHO      -0.093900
     11 HN          -0.5000    -0.4250     0.7560 hn         1 OHO       0.280500
     12 H1           1.8280     0.8840    -0.5090 h1         1 OHO       0.073700
     13 H21          1.6140     0.8860     1.9510 hc         1 OHO       0.040700
     14 H22          1.6130    -0.8860     1.9520 hc         1 OHO       0.040700
     15 H31          3.8630     0.8840     0.9320 hc         1 OHO       0.028950
     16 H32          3.8620    -0.0040     2.4650 hc         1 OHO       0.028950
     17 H41          5.0970    -1.2450     0.7200 hc         1 OHO       0.024700
     18 H42          3.6510    -2.1330     1.2300 hc         1 OHO       0.024700
     19 H51          3.8640    -0.3590    -1.2290 hc         1 OHO       0.028950
     20 H52          3.8650    -2.1310    -1.2310 hc         1 OHO       0.028950
     21 H61          1.6160    -1.2430    -1.7450 hc         1 OHO       0.040700
     22 H62          1.6150    -2.1310    -0.2110 hc         1 OHO       0.040700
@<TRIPOS>BOND
     1     1     2 1
     2     1     5 1
     3     1    11 1
     4     2     3 1
     5     2     4 1
     6     5     6 1
     7     5    10 1
     8     5    12 1
     9     6     7 1
    10     6    13 1
    11     6    14 1
    12     7     8 1
    13     7    15 1
    14     7    16 1
    15     8     9 1
    16     8    17 1
    17     8    18 1
    18     9    10 1
    19     9    19 1
    20     9    20 1
    21    10    21 1
    22    10    22 1
@<TRIPOS>SUBSTRUCTURE
     1 OHO         1 TEMP              0 ****  ****    0 ROOT
