@<TRIPOS>MOLECULE
molecule
   18    18     1     0     0
SMALL
bcc


@<TRIPOS>ATOM
      1 C8           0.0000     0.0000     0.0000 c          1 OHP       0.900600
      2 C7           1.5070     0.0000     0.0000 c3         1 OHP      -0.145100
      3 C3           2.0420     0.0000     1.3940 ca         1 OHP      -0.023300
      4 C4           2.2970    -1.1990     2.0590 ca         1 OHP       0.114100
      5 C5           2.7980    -1.1810     3.3620 ca         1 OHP      -0.195000
      6 C6           3.0430     0.0360     3.9980 ca         1 OHP      -0.145000
      7 C1           2.7880     1.2340     3.3320 ca         1 OHP      -0.156000
      8 C2           2.2870     1.2170     2.0300 ca         1 OHP      -0.111000
      9 O2           2.0640    -2.3960     1.4530 oh         1 OHP      -0.492100
     10 O9          -0.6840    -0.0740     1.0120 o          1 OHP      -0.845800
     11 O10         -0.5260     0.0590    -1.2500 o          1 OHP      -0.845800
     12 H71          1.8620    -0.8830    -0.5170 hc         1 OHP       0.046200
     13 H72          1.8620     0.8830    -0.5170 hc         1 OHP       0.046200
     14 H5           2.9960    -2.1120     3.8790 ha         1 OHP       0.112000
     15 H6           3.4310     0.0500     5.0090 ha         1 OHP       0.106000
     16 H1           2.9780     2.1790     3.8270 ha         1 OHP       0.109000
     17 H2           2.0890     2.1480     1.5130 ha         1 OHP       0.133000
     18 HO2          2.8370    -2.9330     1.5080 ho         1 OHP       0.392000
@<TRIPOS>BOND
     1     1     2 1
     2     1    10 1
     3     1    11 1
     4     2     3 1
     5     2    12 1
     6     2    13 1
     7     3     4 ar
     8     3     8 ar
     9     4     5 ar
    10     4     9 1
    11     5     6 ar
    12     5    14 1
    13     6     7 ar
    14     6    15 1
    15     7     8 ar
    16     7    16 1
    17     8    17 1
    18     9    18 1
@<TRIPOS>SUBSTRUCTURE
     1 OHP         1 TEMP              0 ****  ****    0 ROOT
