@<TRIPOS>MOLECULE
OHP
   18    18     1     0     0
SMALL
bcc


@<TRIPOS>ATOM
      1 C8          0.5150    0.8540   -0.3940 c         1 OHP      0.914600
      2 C7          0.8150   -0.4540    0.3740 c3        1 OHP     -0.167100
      3 C3          1.6770   -0.2740    1.5650 ca        1 OHP     -0.028300
      4 C4          2.6320   -1.2470    1.9330 ca        1 OHP      0.088100
      5 C5          3.4480   -1.0850    3.0610 ca        1 OHP     -0.226000
      6 C6          3.3090    0.0560    3.8480 ca        1 OHP     -0.133000
      7 C1          2.3670    1.0230    3.5080 ca        1 OHP     -0.171000
      8 C2          1.5630    0.8590    2.3800 ca        1 OHP     -0.101000
      9 O2          2.7180   -2.3850    1.1520 oh        1 OHP     -0.499100
     10 O9         -0.1810    1.7440    0.1770 o         1 OHP     -0.844300
     11 O10         0.9500    0.9490   -1.5740 o         1 OHP     -0.844300
     12 H71        -0.1690   -0.8790    0.7070 hc        1 OHP      0.046700
     13 H72         1.2890   -1.1830   -0.3330 hc        1 OHP      0.046700
     14 H5          4.1900   -1.8520    3.3180 ha        1 OHP      0.107000
     15 H6          3.9460    0.1880    4.7330 ha        1 OHP      0.106000
     16 H1          2.2580    1.9250    4.1260 ha        1 OHP      0.114000
     17 H2          0.8240    1.6320    2.0840 ha        1 OHP      0.196000
     18 HO2         3.5480   -2.8260    1.3780 ho        1 OHP      0.395000
@<TRIPOS>BOND
     1    1    2 1   
     2    1   10 1   
     3    1   11 1   
     4    2    3 1   
     5    2   12 1   
     6    2   13 1   
     7    3    4 ar  
     8    3    8 ar  
     9    4    5 ar  
    10    4    9 1   
    11    5    6 ar  
    12    5   14 1   
    13    6    7 ar  
    14    6   15 1   
    15    7    8 ar  
    16    7   16 1   
    17    8   17 1   
    18    9   18 1   
@<TRIPOS>SUBSTRUCTURE
     1 OHP         1 TEMP              0 ****  ****    0 ROOT
