@<TRIPOS>MOLECULE
OHT
   58    60     1     0     0
SMALL
bcc


@<TRIPOS>ATOM
      1 C10          0.0000     0.0000     0.0000 c3         1 OHT      -0.011100
      2 C9           1.5300     0.0000     0.0000 c3         1 OHT       0.018800
      3 C8           2.0320     0.0000     1.4210 ce         1 OHT      -0.056400
      4 C11          2.8770    -1.1030     1.9020 ca         1 OHT      -0.042800
      5 C16          2.3960    -2.4160     1.8900 ca         1 OHT      -0.092000
      6 C15          3.1950    -3.4440     2.3430 ca         1 OHT      -0.102000
      7 C14          4.4700    -3.1800     2.8070 ca         1 OHT      -0.104000
      8 C13          4.9540    -1.8840     2.8230 ca         1 OHT      -0.102000
      9 C12          4.1710    -0.8460     2.3690 ca         1 OHT      -0.092000
     10 C7           1.7030     1.0160     2.2570 cf         1 OHT      -0.005400
     11 C1           0.8530     2.1240     1.7730 ca         1 OHT      -0.050800
     12 C2          -0.3720     2.3890     2.3890 ca         1 OHT      -0.076000
     13 C3          -1.1610     3.4230     1.9350 ca         1 OHT      -0.138500
     14 C4          -0.7400     4.2030     0.8660 ca         1 OHT       0.121100
     15 O4          -1.5220     5.2220     0.4210 oh         1 OHT      -0.502100
     16 C5           0.4760     3.9440     0.2500 ca         1 OHT      -0.138500
     17 C6           1.2750     2.9150     0.7020 ca         1 OHT      -0.076000
     18 C17          2.1970     1.0160     3.6510 ca         1 OHT      -0.086800
     19 C18          2.9990     2.0620     4.1090 ca         1 OHT      -0.048500
     20 C19          3.4560     2.0590     5.4090 ca         1 OHT      -0.185500
     21 C20          3.1190     1.0160     6.2630 ca         1 OHT       0.136100
     22 O20          3.5710     1.0160     7.5440 os         1 OHT      -0.260900
     23 C23          3.0650    -0.1680     8.1610 c3         1 OHT       0.171400
     24 C24          3.5400    -0.2290     9.6140 c3         1 OHT       0.125800
     25 N24          2.9700     0.8970    10.3640 n3         1 OHT      -0.510600
     26 C25          1.5620     0.5630    10.6210 c3         1 OHT       0.165100
     27 C26          3.6420     0.9190    11.6700 c3         1 OHT       0.165100
     28 C21          2.3200    -0.0250     5.8110 ca         1 OHT      -0.185500
     29 C22          1.8560    -0.0260     4.5130 ca         1 OHT      -0.048500
     30 H101        -0.3610    -0.0680     1.0190 hc         1 OHT       0.009033
     31 H102        -0.3610     0.9160    -0.4510 hc         1 OHT       0.009033
     32 H103        -0.3610    -0.8490    -0.5680 hc         1 OHT       0.009033
     33 H91          1.8910     0.8840    -0.5110 hc         1 OHT       0.023700
     34 H92          1.8910    -0.8850    -0.5110 hc         1 OHT       0.023700
     35 H16          1.3970    -2.6250     1.5260 ha         1 OHT       0.110500
     36 H15          2.8230    -4.4610     2.3340 ha         1 OHT       0.102000
     37 H14          5.0920    -3.9920     3.1640 ha         1 OHT       0.100000
     38 H13          5.9550    -1.6860     3.1870 ha         1 OHT       0.102000
     39 H12          4.5520     0.1680     2.3820 ha         1 OHT       0.110500
     40 H2          -0.7010     1.7810     3.2230 ha         1 OHT       0.112000
     41 H3          -2.1110     3.6280     2.4130 ha         1 OHT       0.114000
     42 HO4         -1.3070     6.0110     0.8910 ho         1 OHT       0.402000
     43 H5           0.8020     4.5560    -0.5820 ha         1 OHT       0.114000
     44 H6           2.2240     2.7130     0.2210 ha         1 OHT       0.112000
     45 H18          3.2610     2.8750     3.4440 ha         1 OHT       0.109000
     46 H19          4.0790     2.8700     5.7660 ha         1 OHT       0.124500
     47 H231         1.9820    -0.1540     8.1360 h1         1 OHT       0.014200
     48 H232         3.4280    -1.0370     7.6260 h1         1 OHT       0.014200
     49 H241         4.6220    -0.1710     9.6430 h1         1 OHT       0.021200
     50 H242         3.2170    -1.1620    10.0600 h1         1 OHT       0.021200
     51 H251         0.9580     0.8640     9.7730 h1         1 OHT       0.003867
     52 H252         1.4650    -0.5050    10.7720 h1         1 OHT       0.003867
     53 H253         1.2230     1.0850    11.5080 h1         1 OHT       0.003867
     54 H261         3.4860    -0.0270    12.1730 h1         1 OHT       0.003867
     55 H262         4.7040     1.0810    11.5260 h1         1 OHT       0.003867
     56 H263         3.2330     1.7210    12.2730 h1         1 OHT       0.003867
     57 H21          2.0580    -0.8360     6.4790 ha         1 OHT       0.124500
     58 H22          1.2330    -0.8390     4.1610 ha         1 OHT       0.109000
@<TRIPOS>BOND
     1     1     2 1   
     2     1    30 1   
     3     1    31 1   
     4     1    32 1   
     5     2     3 1   
     6     2    33 1   
     7     2    34 1   
     8     3     4 1   
     9     3    10 2   
    10     4     5 ar  
    11     4     9 ar  
    12     5     6 ar  
    13     5    35 1   
    14     6     7 ar  
    15     6    36 1   
    16     7     8 ar  
    17     7    37 1   
    18     8     9 ar  
    19     8    38 1   
    20     9    39 1   
    21    10    11 1   
    22    10    18 1   
    23    11    12 ar  
    24    11    17 ar  
    25    12    13 ar  
    26    12    40 1   
    27    13    14 ar  
    28    13    41 1   
    29    14    15 1   
    30    14    16 ar  
    31    15    42 1   
    32    16    17 ar  
    33    16    43 1   
    34    17    44 1   
    35    18    19 ar  
    36    18    29 ar  
    37    19    20 ar  
    38    19    45 1   
    39    20    21 ar  
    40    20    46 1   
    41    21    22 1   
    42    21    28 ar  
    43    22    23 1   
    44    23    24 1   
    45    23    47 1   
    46    23    48 1   
    47    24    25 1   
    48    24    49 1   
    49    24    50 1   
    50    25    26 1   
    51    25    27 1   
    52    26    51 1   
    53    26    52 1   
    54    26    53 1   
    55    27    54 1   
    56    27    55 1   
    57    27    56 1   
    58    28    29 ar  
    59    28    57 1   
    60    29    58 1   
@<TRIPOS>SUBSTRUCTURE
     1 OHT         1 TEMP              0 ****  ****    0 ROOT
