@<TRIPOS>MOLECULE
OI7
   34    34     1     0     0
SMALL
bcc


@<TRIPOS>ATOM
      1 C4          0.5670   -0.0890    0.2590 c3        1 OI7      0.117100
      2 C5          2.0860    0.1120    0.0350 c3        1 OI7      0.099100
      3 C6          2.4710    1.6020   -0.0860 c3        1 OI7      0.116100
      4 C7          3.7590    1.8450   -0.9250 c3        1 OI7      0.182400
      5 O7          3.4600    2.4410   -2.1270 os        1 OI7     -0.586200
      6 O6          1.3400    2.2760   -0.6250 oh        1 OI7     -0.669800
      7 O5          2.7590   -0.5230    1.1320 os        1 OI7     -0.438600
      8 O4         -0.1120   -0.2850   -0.9710 oh        1 OI7     -0.628800
      9 C3          0.4900   -1.3520    1.1360 c3        1 OI7      0.149100
     10 O3         -0.6400   -1.3050    1.9700 oh        1 OI7     -0.646800
     11 C2          1.8340   -1.3020    1.9220 c3        1 OI7      0.270600
     12 O2          1.6770   -0.5000    3.0650 oh        1 OI7     -0.623800
     13 C1          2.4380   -2.7060    2.2190 c3        1 OI7      0.205400
     14 O1          2.3440   -3.0130    3.5550 os        1 OI7     -0.578200
     15 P1          1.3110   -4.3620    3.9270 p5        1 OI7      1.326900
     16 O1P        -0.0130   -3.7920    3.4750 o         1 OI7     -0.936833
     17 O3P         1.8620   -5.4700    3.0710 o         1 OI7     -0.936833
     18 O2P         1.4930   -4.5310    5.4110 o         1 OI7     -0.936833
     19 P2          4.5370    3.6830   -2.7090 p5        1 OI7      1.323900
     20 O5P         5.5160    2.9280   -3.5690 o         1 OI7     -0.938500
     21 O4P         3.5670    4.5630   -3.4550 o         1 OI7     -0.938500
     22 O6P         5.1190    4.2770   -1.4530 o         1 OI7     -0.938500
     23 H4          0.1200    0.7880    0.7980 h1        1 OI7      0.063700
     24 H5          2.4020   -0.4310   -0.8980 h1        1 OI7      0.041700
     25 H6          2.6150    2.0130    0.9510 h1        1 OI7      0.038700
     26 H7          4.2440    0.8380   -1.0880 h1        1 OI7      0.013200
     27 H7A         4.4600    2.4990   -0.3320 h1        1 OI7      0.013200
     28 HO6         1.5990    2.6590   -1.4790 ho        1 OI7      0.445000
     29 HO4         0.1300    0.4830   -1.5080 ho        1 OI7      0.408000
     30 H3          0.4540   -2.2740    0.4960 h1        1 OI7      0.041700
     31 HO3        -0.5190   -2.0250    2.6270 ho        1 OI7      0.485000
     32 HO2         2.0120   -1.0040    3.8220 ho        1 OI7      0.432000
     33 H1          3.5230   -2.6640    1.9130 h1        1 OI7      0.013200
     34 H1A         1.9040   -3.4740    1.5930 h1        1 OI7      0.013200
@<TRIPOS>BOND
     1    1    2 1   
     2    1    8 1   
     3    1    9 1   
     4    1   23 1   
     5    2    3 1   
     6    2    7 1   
     7    2   24 1   
     8    3    4 1   
     9    3    6 1   
    10    3   25 1   
    11    4    5 1   
    12    4   26 1   
    13    4   27 1   
    14    5   19 1   
    15    6   28 1   
    16    7   11 1   
    17    8   29 1   
    18    9   10 1   
    19    9   11 1   
    20    9   30 1   
    21   10   31 1   
    22   11   12 1   
    23   11   13 1   
    24   12   32 1   
    25   13   14 1   
    26   13   33 1   
    27   13   34 1   
    28   14   15 1   
    29   15   16 1   
    30   15   17 1   
    31   15   18 1   
    32   19   20 1   
    33   19   21 1   
    34   19   22 1   
@<TRIPOS>SUBSTRUCTURE
     1 OI7         1 TEMP              0 ****  ****    0 ROOT
