@<TRIPOS>MOLECULE
molecule
   34    34     1     0     0
SMALL
bcc


@<TRIPOS>ATOM
      1 C4           0.0000     0.0000     0.0000 c3         1 OI7       0.078100
      2 C5           1.5510     0.0000     0.0000 c3         1 OI7       0.152100
      3 C6           2.0890     1.2580    -0.6830 c3         1 OI7       0.139100
      4 C7           3.6180     1.2310    -0.6690 c3         1 OI7       0.203400
      5 O7           4.1220     2.4580    -1.2010 os         1 OI7      -0.606200
      6 O6           1.6260     1.3010    -2.0350 oh         1 OI7      -0.613800
      7 O5           1.8870     0.0000     1.4040 os         1 OI7      -0.382600
      8 O4          -0.5090    -0.5610    -1.2120 oh         1 OI7      -0.587800
      9 C3          -0.3240    -0.9110     1.2090 c3         1 OI7       0.070100
     10 O3          -1.4250    -0.3830     1.9510 oh         1 OI7      -0.593800
     11 C2           0.9620    -0.8840     2.0580 c3         1 OI7       0.338600
     12 O2           0.6670    -0.3980     3.3690 oh         1 OI7      -0.603800
     13 C1           1.5580    -2.2900     2.1430 c3         1 OI7       0.208400
     14 O1           2.7490    -2.2550     2.9330 os         1 OI7      -0.555200
     15 P1           3.6410    -3.5620     3.2330 p5         1 OI7       1.198900
     16 O1P          2.7880    -4.6000     4.1210 o          1 OI7      -0.918833
     17 O3P          4.0230    -4.2030     1.9550 o          1 OI7      -0.918833
     18 O2P          4.9670    -3.1320     4.0360 o          1 OI7      -0.918833
     19 P2           5.6940     2.7760    -1.3370 p5         1 OI7       1.206900
     20 O5P          6.3590     1.7580    -2.3930 o          1 OI7      -0.923500
     21 O4P          5.8940     4.2880    -1.8500 o          1 OI7      -0.923500
     22 O6P          6.3460     2.6130    -0.0180 o          1 OI7      -0.923500
     23 H4          -0.3830     1.0000     0.1610 h1         1 OI7       0.041700
     24 H5           1.9290    -0.8940    -0.4800 h1         1 OI7       0.091700
     25 H6           1.7380     2.1350    -0.1540 h1         1 OI7       0.020700
     26 H7           3.9670     1.1090     0.3500 h1         1 OI7       0.049200
     27 H7A          3.9710     0.4030    -1.2720 h1         1 OI7       0.049200
     28 HO6          1.3910     2.1860    -2.2580 ho         1 OI7       0.385000
     29 HO4         -1.3720    -0.2190    -1.3790 ho         1 OI7       0.363000
     30 H3          -0.5340    -1.9200     0.8740 h1         1 OI7       0.054700
     31 HO3         -2.1710    -0.9520     1.8530 ho         1 OI7       0.364000
     32 HO2          1.3620     0.1700     3.6580 ho         1 OI7       0.426000
     33 H1           1.7960    -2.6430     1.1470 h1         1 OI7       0.015200
     34 H1A          0.8410    -2.9600     2.6020 h1         1 OI7       0.015200
@<TRIPOS>BOND
     1     9     1 1
     2     1     8 1
     3     1     2 1
     4     1    23 1
     5     7     2 1
     6     2     3 1
     7     2    24 1
     8     6     3 1
     9     3     4 1
    10     3    25 1
    11     4     5 1
    12     4    26 1
    13     4    27 1
    14     5    19 1
    15     6    28 1
    16    11     7 1
    17     8    29 1
    18    10     9 1
    19     9    11 1
    20     9    30 1
    21    10    31 1
    22    12    11 1
    23    13    11 1
    24    12    32 1
    25    14    13 1
    26    13    33 1
    27    13    34 1
    28    15    14 1
    29    17    15 1
    30    16    15 1
    31    15    18 1
    32    19    22 1
    33    19    20 1
    34    19    21 1
@<TRIPOS>SUBSTRUCTURE
     1 OI7         1 TEMP              0 ****  ****    0 ROOT
