@<TRIPOS>MOLECULE
molecule
   22    23     1     0     0
SMALL
bcc


@<TRIPOS>ATOM
      1 O14          0.0000     0.0000     0.0000 o          1 OIA      -0.839800
      2 C11          1.3420     0.0000     0.0000 c          1 OIA       0.885600
      3 O13          1.9460     0.0000     1.0470 o          1 OIA      -0.839800
      4 C10          2.0960    -0.0010    -1.3050 c3         1 OIA      -0.165400
      5 C3           3.6000    -0.0010    -1.0240 c3         1 OIA      -0.086400
      6 C9           4.3790    -0.1270    -2.3140 ca         1 OIA      -0.113300
      7 C4           4.4320    -1.1020    -3.2850 ca         1 OIA      -0.075000
      8 C5           5.2590    -0.9370    -4.3830 ca         1 OIA      -0.187000
      9 C6           6.0280     0.2060    -4.4990 ca         1 OIA      -0.123000
     10 C7           5.9770     1.1850    -3.5280 ca         1 OIA      -0.180000
     11 C8           5.1470     1.0270    -2.4200 ca         1 OIA       0.066600
     12 N1           4.9230     1.8580    -1.3220 ns         1 OIA      -0.484100
     13 C2           4.0340     1.3340    -0.4600 c          1 OIA       0.708500
     14 O12          3.6530     1.8370     0.5750 o          1 OIA      -0.546500
     15 H2           1.8340    -0.8860    -1.8720 hc         1 OIA       0.039700
     16 H3           1.8350     0.8830    -1.8740 hc         1 OIA       0.039700
     17 H4           3.8660    -0.8020    -0.3450 hc         1 OIA       0.105700
     18 H5           3.9990    -2.0940    -3.3140 ha         1 OIA       0.132000
     19 H6           5.3320    -1.6810    -5.1660 ha         1 OIA       0.117000
     20 H7           6.6690     0.3220    -5.3650 ha         1 OIA       0.113000
     21 H8           6.6070     2.0480    -3.7060 ha         1 OIA       0.117000
     22 H9           5.3720     2.7430    -1.1910 hn         1 OIA       0.315500
@<TRIPOS>BOND
     1    14    13 2
     2    13     5 1
     3    13    12 1
     4     4     2 1
     5     4     5 1
     6     3     2 1
     7     2     1 1
     8     5     6 1
     9    12    11 1
    10    11     6 ar
    11    11    10 ar
    12     6     7 ar
    13    10     9 ar
    14     7     8 ar
    15     9     8 ar
    16     4    15 1
    17     4    16 1
    18     5    17 1
    19     7    18 1
    20     8    19 1
    21     9    20 1
    22    10    21 1
    23    12    22 1
@<TRIPOS>SUBSTRUCTURE
     1 OIA         1 TEMP              0 ****  ****    0 ROOT
