@<TRIPOS>MOLECULE
OIA
   22    23     1     0     0
SMALL
bcc


@<TRIPOS>ATOM
      1 O14          0.0000     0.0000     0.0000 o          1 OIA      -0.888300
      2 C11          1.3420     0.0000     0.0000 c          1 OIA       0.970600
      3 O13          1.9460     0.0000     1.0470 o          1 OIA      -0.888300
      4 C10          2.0960    -0.0010    -1.3050 c3         1 OIA      -0.113400
      5 C3           3.6000    -0.0010    -1.0240 c3         1 OIA      -0.051400
      6 C9           4.3790    -0.1270    -2.3140 ca         1 OIA      -0.116300
      7 C4           4.4320    -1.1020    -3.2850 ca         1 OIA      -0.037000
      8 C5           5.2590    -0.9370    -4.3830 ca         1 OIA      -0.169000
      9 C6           6.0280     0.2060    -4.4990 ca         1 OIA      -0.099000
     10 C7           5.9770     1.1850    -3.5280 ca         1 OIA      -0.149000
     11 C8           5.1470     1.0270    -2.4200 ca         1 OIA      -0.076400
     12 N1           4.9230     1.8580    -1.3220 ns         1 OIA      -0.053100
     13 C2           4.0340     1.3340    -0.4600 c          1 OIA       0.610500
     14 O12          3.6530     1.8370     0.5750 o          1 OIA      -0.577500
     15 H2           1.8340    -0.8860    -1.8720 hc         1 OIA       0.011700
     16 H3           1.8350     0.8830    -1.8740 hc         1 OIA       0.011700
     17 H4           3.8660    -0.8020    -0.3450 hc         1 OIA       0.074700
     18 H5           3.9990    -2.0940    -3.3140 ha         1 OIA       0.103000
     19 H6           5.3320    -1.6810    -5.1660 ha         1 OIA       0.095000
     20 H7           6.6690     0.3220    -5.3650 ha         1 OIA       0.088000
     21 H8           6.6070     2.0480    -3.7060 ha         1 OIA       0.095000
     22 H9           5.3720     2.7430    -1.1910 hn         1 OIA       0.159500
@<TRIPOS>BOND
     1     1     2 1   
     2     2     3 1   
     3     2     4 1   
     4     4     5 1   
     5     4    15 1   
     6     4    16 1   
     7     5     6 1   
     8     5    13 1   
     9     5    17 1   
    10     6     7 ar  
    11     6    11 ar  
    12     7     8 ar  
    13     7    18 1   
    14     8     9 ar  
    15     8    19 1   
    16     9    10 ar  
    17     9    20 1   
    18    10    11 ar  
    19    10    21 1   
    20    11    12 1   
    21    12    13 1   
    22    12    22 1   
    23    13    14 2   
@<TRIPOS>SUBSTRUCTURE
     1 OIA         1 TEMP              0 ****  ****    0 ROOT
