@<TRIPOS>MOLECULE
molecule
   38    38     1     0     0
SMALL
bcc


@<TRIPOS>ATOM
      1 O17          0.0000     0.0000     0.0000 o          1 OID      -0.857300
      2 C2           1.2080     0.0000     0.0000 c          1 OID       0.891600
      3 O1           1.8790     0.0000     1.1620 o          1 OID      -0.857300
      4 C3           1.9620    -0.0050    -1.3060 c3         1 OID      -0.183400
      5 C4           0.9670    -0.0100    -2.4680 c3         1 OID      -0.063400
      6 C5           1.7320    -0.0150    -3.7930 c3         1 OID      -0.088400
      7 C6           0.7380    -0.0200    -4.9560 c3         1 OID      -0.081400
      8 C7           1.5030    -0.0260    -6.2810 c3         1 OID      -0.083400
      9 C8           0.5090    -0.0310    -7.4440 c3         1 OID      -0.080400
     10 C9           1.2740    -0.0360    -8.7690 c3         1 OID      -0.082400
     11 C10          0.2790    -0.0410    -9.9320 c3         1 OID      -0.103400
     12 C11          1.0450    -0.0460   -11.2570 c3         1 OID       0.038300
     13 N12          0.0930    -0.0510   -12.3710 na         1 OID      -0.169900
     14 C16         -0.4320    -1.1410   -12.9720 cc         1 OID       0.394400
     15 N15         -1.2390    -0.7480   -13.9190 nd         1 OID      -0.707000
     16 C14         -1.2580     0.5930   -13.9580 cd         1 OID       0.288200
     17 C13         -0.4360     1.0480   -12.9930 cc         1 OID      -0.287600
     18 H3           2.5840     0.8800    -1.3670 hc         1 OID       0.026700
     19 H3A          2.5850    -0.8890    -1.3600 hc         1 OID       0.026700
     20 H4           0.3440     0.8740    -2.4140 hc         1 OID       0.045700
     21 H4A          0.3440    -0.8950    -2.4070 hc         1 OID       0.045700
     22 H5           2.3550    -0.9000    -3.8470 hc         1 OID       0.028700
     23 H5A          2.3550     0.8690    -3.8540 hc         1 OID       0.028700
     24 H6           0.1150     0.8640    -4.9020 hc         1 OID       0.039700
     25 H6A          0.1160    -0.9050    -4.8950 hc         1 OID       0.039700
     26 H7           2.1260    -0.9100    -6.3350 hc         1 OID       0.036700
     27 H7A          2.1260     0.8590    -6.3420 hc         1 OID       0.036700
     28 H8          -0.1130    -0.9150    -7.3830 hc         1 OID       0.042700
     29 H8A         -0.1140     0.8540    -7.3900 hc         1 OID       0.042700
     30 H9           1.8970    -0.9200    -8.8230 hc         1 OID       0.040200
     31 H9A          1.8960     0.8490    -8.8300 hc         1 OID       0.040200
     32 H10         -0.3440     0.8440    -9.8790 hc         1 OID       0.055200
     33 H10A        -0.3430    -0.9250    -9.8720 hc         1 OID       0.055200
     34 H11          1.6680    -0.9310   -11.3100 h1         1 OID       0.060700
     35 H11A         1.6670     0.8390   -11.3180 h1         1 OID       0.060700
     36 H16         -0.2180    -2.1710   -12.7110 h5         1 OID       0.063100
     37 H14         -1.8450     1.2020   -14.6340 h4         1 OID       0.034100
     38 H13         -0.3190     2.1250   -12.9940 h4         1 OID       0.183000
@<TRIPOS>BOND
     1     1     2 1
     2     4     2 1
     3     2     3 1
     4     4     5 1
     5     4    18 1
     6     4    19 1
     7     6     5 1
     8     5    20 1
     9     5    21 1
    10     7     6 1
    11     6    22 1
    12     6    23 1
    13     8     7 1
    14     7    24 1
    15     7    25 1
    16     9     8 1
    17     8    26 1
    18     8    27 1
    19    10     9 1
    20     9    28 1
    21     9    29 1
    22    11    10 1
    23    10    30 1
    24    10    31 1
    25    12    11 1
    26    11    32 1
    27    11    33 1
    28    13    12 1
    29    12    34 1
    30    12    35 1
    31    14    13 1
    32    13    17 1
    33    15    14 2
    34    14    36 1
    35    15    16 1
    36    16    17 2
    37    16    37 1
    38    17    38 1
@<TRIPOS>SUBSTRUCTURE
     1 OID         1 TEMP              0 ****  ****    0 ROOT
