@<TRIPOS>MOLECULE
OID
   38    38     1     0     0
SMALL
bcc


@<TRIPOS>ATOM
      1 O17         0.3340   -0.8470    0.1730 o         1 OID     -0.852300
      2 C2          1.2900   -0.0280    0.0470 c         1 OID      0.907600
      3 O1          1.6980    0.7260    0.9770 o         1 OID     -0.852300
      4 C3          2.0200    0.0460   -1.3060 c3        1 OID     -0.194400
      5 C4          1.0420    0.0900   -2.4540 c3        1 OID     -0.065400
      6 C5          1.7380   -0.0280   -3.7940 c3        1 OID     -0.078400
      7 C6          0.7510    0.0380   -4.9390 c3        1 OID     -0.079400
      8 C7          1.4480   -0.0870   -6.2770 c3        1 OID     -0.079400
      9 C8          0.4610   -0.0140   -7.4230 c3        1 OID     -0.078400
     10 C9          1.1650   -0.1310   -8.7590 c3        1 OID     -0.079400
     11 C10         0.1800   -0.0460   -9.9050 c3        1 OID     -0.100400
     12 C11         0.9290   -0.1570  -11.2350 c3        1 OID      0.036300
     13 N12         0.1040   -0.0580  -12.4030 na        1 OID     -0.200900
     14 C16        -0.3460   -1.1150  -13.2100 cc        1 OID      0.383400
     15 N15        -1.1330   -0.6690  -14.2130 nd        1 OID     -0.675000
     16 C14        -1.2090    0.7130  -14.0500 cd        1 OID      0.282200
     17 C13        -0.4540    1.1100  -12.9310 cc        1 OID     -0.254600
     18 H3          2.6710   -0.8610   -1.3930 hc        1 OID      0.018700
     19 H3A         2.6820    0.9470   -1.3220 hc        1 OID      0.018700
     20 H4          0.4650    1.0520   -2.4160 hc        1 OID      0.044200
     21 H4A         0.3010   -0.7440   -2.3280 hc        1 OID      0.044200
     22 H5          2.3000   -0.9980   -3.8390 hc        1 OID      0.026200
     23 H5A         2.4930    0.7950   -3.9010 hc        1 OID      0.026200
     24 H6          0.1910    1.0090   -4.8960 hc        1 OID      0.037700
     25 H6A        -0.0050   -0.7840   -4.8290 hc        1 OID      0.037700
     26 H7          2.2080    0.7310   -6.3820 hc        1 OID      0.035200
     27 H7A         2.0030   -1.0610   -6.3220 hc        1 OID      0.035200
     28 H8         -0.0980    0.9580   -7.3760 hc        1 OID      0.041200
     29 H8A        -0.2950   -0.8360   -7.3220 hc        1 OID      0.041200
     30 H9          1.7180   -1.1070   -8.8060 hc        1 OID      0.039200
     31 H9A         1.9270    0.6870   -8.8530 hc        1 OID      0.039200
     32 H10        -0.5770   -0.8680   -9.8180 hc        1 OID      0.054200
     33 H10A       -0.3760    0.9270   -9.8580 hc        1 OID      0.054200
     34 H11         1.4650   -1.1490  -11.2710 h1        1 OID      0.058700
     35 H11A        1.7040    0.6620  -11.2840 h1        1 OID      0.058700
     36 H16        -0.0680   -2.1570  -13.0250 h5        1 OID      0.058100
     37 H14        -1.7880    1.3360  -14.7290 h4        1 OID      0.037100
     38 H13        -0.2760    2.0890  -12.4920 h4        1 OID      0.176000
@<TRIPOS>BOND
     1    1    2 1   
     2    2    3 1   
     3    2    4 1   
     4    4    5 1   
     5    4   18 1   
     6    4   19 1   
     7    5    6 1   
     8    5   20 1   
     9    5   21 1   
    10    6    7 1   
    11    6   22 1   
    12    6   23 1   
    13    7    8 1   
    14    7   24 1   
    15    7   25 1   
    16    8    9 1   
    17    8   26 1   
    18    8   27 1   
    19    9   10 1   
    20    9   28 1   
    21    9   29 1   
    22   10   11 1   
    23   10   30 1   
    24   10   31 1   
    25   11   12 1   
    26   11   32 1   
    27   11   33 1   
    28   12   13 1   
    29   12   34 1   
    30   12   35 1   
    31   13   14 1   
    32   13   17 1   
    33   14   15 2   
    34   14   36 1   
    35   15   16 1   
    36   16   17 2   
    37   16   37 1   
    38   17   38 1   
@<TRIPOS>SUBSTRUCTURE
     1 OID         1 TEMP              0 ****  ****    0 ROOT
