@<TRIPOS>MOLECULE
molecule
   20    19     1     0     0
SMALL
bcc


@<TRIPOS>ATOM
      1 C            0.0000     0.0000     0.0000 c          1 OIL       0.871600
      2 O           -0.6040     0.9500    -0.4370 o          1 OIL      -0.844300
      3 O1           1.9840     1.1670    -0.6730 oh         1 OIL      -0.615800
      4 CA           1.5070     0.0000     0.0000 c3         1 OIL       0.041100
      5 CB           2.0180     0.0000     1.4430 c3         1 OIL      -0.045700
      6 CG1          3.5470     0.0000     1.4430 c3         1 OIL      -0.084400
      7 CG2          1.5080    -1.2490     2.1640 c3         1 OIL      -0.076100
      8 OXT         -0.6700    -1.0540     0.4910 o          1 OIL      -0.844300
      9 HO1          2.0050     1.0080    -1.6020 ho         1 OIL       0.384000
     10 HA           1.8690    -0.8840    -0.5110 h1         1 OIL       0.013700
     11 HB           1.6560     0.8840     1.9540 hc         1 OIL       0.055700
     12 HD1          4.1700    -0.8620     3.3100 hc         1 OIL       0.020700
     13 HD1A         3.3470     0.6960     3.4660 hc         1 OIL       0.020700
     14 HD1B         5.0150     0.6320     2.8800 hc         1 OIL       0.020700
     15 HG1          3.9090    -0.9250     1.0110 hc         1 OIL       0.034700
     16 HG1A         3.9080     0.8370     0.8580 hc         1 OIL       0.034700
     17 HG2          0.4840    -1.0900     2.4810 hc         1 OIL       0.034033
     18 HG2A         2.1280    -1.4450     3.0300 hc         1 OIL       0.034033
     19 HG2B         1.5500    -2.0970     1.4910 hc         1 OIL       0.034033
     20 CD1          4.0570     0.1260     2.8800 c3         1 OIL      -0.090100
@<TRIPOS>BOND
     1     1     4 1
     2     1     8 1
     3     2     1 1
     4     3     9 1
     5     4     3 1
     6     4     5 1
     7     4    10 1
     8     5     6 1
     9     5    11 1
    10    20    12 1
    11    20    13 1
    12    20    14 1
    13     6    20 1
    14     6    15 1
    15     6    16 1
    16     7     5 1
    17     7    17 1
    18     7    18 1
    19     7    19 1
@<TRIPOS>SUBSTRUCTURE
     1 OIL         1 TEMP              0 ****  ****    0 ROOT
