@<TRIPOS>MOLECULE
OIL
   20    18     1     0     0
SMALL
bcc


@<TRIPOS>ATOM
      1 C          -0.2030   -0.1770   -0.0220 c         1 OIL      0.903600
      2 O          -0.5900    0.9860   -0.3300 o         1 OIL     -0.830800
      3 O1          1.9280    0.5200   -1.0170 oh        1 OIL     -0.638800
      4 CA          1.3210   -0.4640   -0.1960 c3        1 OIL      0.039300
      5 CB          2.0100   -0.5750    1.1330 c2        1 OIL     -0.075400
      6 CG1         2.8830    0.3460    1.5710 c2        1 OIL     -0.233200
      7 CG2         1.6440   -1.7840    1.9090 c3        1 OIL     -0.074900
      8 OXT        -0.9490   -1.1110    0.3760 o         1 OIL     -0.830800
      9 HO1         3.1070    1.2210    0.9380 ha        1 OIL      0.125000
     10 HA          1.3540    1.3040   -0.9850 ho        1 OIL      0.423000
     11 HB          1.4450   -1.4370   -0.7490 h1        1 OIL      0.049700
     12 HD1         2.8650    0.4750    3.7110 hc        1 OIL      0.017700
     13 HD1A        5.2480    3.1260    1.4650 ha        1 OIL      0.000000
     14 HD1B        4.3800    1.0770    2.9190 hc        1 OIL      0.017700
     15 HG1         4.7530    2.6800    1.3420 ha        1 OIL      0.000000
     16 HG1A        4.0590   -0.7030    3.0340 hc        1 OIL      0.017700
     17 HG2         2.2380   -2.6600    1.5490 hc        1 OIL      0.043033
     18 HG2A        1.8440   -1.6480    3.0000 hc        1 OIL      0.043033
     19 HG2B        0.5520   -2.0070    1.7630 hc        1 OIL      0.043033
     20 CD1         3.5810    0.2950    2.8690 c3        1 OIL     -0.038900
@<TRIPOS>BOND
     1    1    2 1   
     2    1    4 1   
     3    1    8 1   
     4    3    4 1   
     5    3   10 1   
     6    4    5 1   
     7    4   11 1   
     8    5    6 2   
     9    5    7 1   
    10    6    9 1   
    11    6   20 1   
    12    7   17 1   
    13    7   18 1   
    14    7   19 1   
    15   12   20 1   
    16   13   15 1   
    17   14   20 1   
    18   16   20 1   
@<TRIPOS>SUBSTRUCTURE
     1 OIL         1 TEMP              0 ****  ****    0 ROOT
