@<TRIPOS>MOLECULE
OIN
   44    46     1     0     0
SMALL
bcc


@<TRIPOS>ATOM
      1 C10          0.0000     0.0000     0.0000 c3         1 OIN       0.186100
      2 N            1.4610     0.0000     0.0000 n3         1 OIN      -0.543600
      3 C11          2.0320     0.0000     1.3600 c3         1 OIN       0.141000
      4 C17          1.9300    -1.4600     1.8180 c3         1 OIN      -0.057900
      5 C16          1.9300    -2.2730     0.5210 c3         1 OIN      -0.057900
      6 C15          2.0310    -1.2240    -0.5920 c3         1 OIN       0.141000
      7 C14          3.4970    -0.8950    -0.9390 c3         1 OIN      -0.044400
      8 C13          4.3100    -0.4640     0.2900 c3         1 OIN       0.192100
      9 C12          3.4970     0.4550     1.2150 c3         1 OIN      -0.044400
     10 O2           5.4960     0.1930    -0.1380 os         1 OIN      -0.400900
     11 C7           6.3470     0.6030     0.8560 c          1 OIN       0.707100
     12 O3           6.1540     0.4430     2.0550 o          1 OIN      -0.552000
     13 C9           7.5640     1.2910     0.2460 c3         1 OIN      -0.059400
     14 C8           8.5480     1.7110     1.3470 c3         1 OIN       0.242400
     15 OH           7.9400     2.6920     2.1820 oh         1 OIN      -0.579800
     16 C6           7.1460     2.4610    -0.6320 ca         1 OIN      -0.074300
     17 C5           7.9360     2.8030    -1.7100 ca         1 OIN      -0.087500
     18 C4           7.5530     3.8750    -2.5160 ca         1 OIN      -0.098000
     19 C3           6.3880     4.5840    -2.2250 ca         1 OIN      -0.101000
     20 C2           5.6050     4.2200    -1.1290 ca         1 OIN      -0.098000
     21 C1           5.9880     3.1470    -0.3240 ca         1 OIN      -0.087500
     22 H101        -0.3610     0.9030     0.4780 h1         1 OIN       0.001367
     23 H102        -0.3610    -0.8650     0.5420 h1         1 OIN       0.001367
     24 H103        -0.3610    -0.0370    -1.0210 h1         1 OIN       0.001367
     25 H11          1.4770     0.6590     2.0170 h1         1 OIN       0.038200
     26 H171         1.0090    -1.6200     2.3650 hc         1 OIN       0.024200
     27 H172         2.7840    -1.7240     2.4300 hc         1 OIN       0.024200
     28 H161         1.0080    -2.8350     0.4280 hc         1 OIN       0.024200
     29 H162         2.7840    -2.9390     0.4930 hc         1 OIN       0.024200
     30 H15          1.4770    -1.5290    -1.4710 h1         1 OIN       0.038200
     31 H141         3.9590    -1.7730    -1.3740 hc         1 OIN       0.034200
     32 H142         3.5130    -0.0940    -1.6670 hc         1 OIN       0.034200
     33 H13          4.5890    -1.3510     0.8460 h1         1 OIN       0.015700
     34 H121         3.5130     1.4600     0.8110 hc         1 OIN       0.034200
     35 H122         3.9590     0.4640     2.1940 hc         1 OIN       0.034200
     36 H9           8.0670     0.5700    -0.3870 hc         1 OIN       0.046700
     37 H81          9.4400     2.1250     0.8950 h1         1 OIN      -0.008800
     38 H82          8.8130     0.8460     1.9430 h1         1 OIN      -0.008800
     39 HOH          8.5490     2.9550     2.8520 ho         1 OIN       0.391000
     40 H5           8.8400     2.2460    -1.9290 ha         1 OIN       0.111500
     41 H4           8.1610     4.1580    -3.3670 ha         1 OIN       0.102000
     42 H3           6.0900     5.4170    -2.8500 ha         1 OIN       0.102000
     43 H2           4.7000     4.7700    -0.9030 ha         1 OIN       0.102000
     44 H1           5.3870     2.8570     0.5290 ha         1 OIN       0.111500
@<TRIPOS>BOND
     1     1     2 1   
     2     1    22 1   
     3     1    23 1   
     4     1    24 1   
     5     2     3 1   
     6     2     6 1   
     7     3     4 1   
     8     3     9 1   
     9     3    25 1   
    10     4     5 1   
    11     4    26 1   
    12     4    27 1   
    13     5     6 1   
    14     5    28 1   
    15     5    29 1   
    16     6     7 1   
    17     6    30 1   
    18     7     8 1   
    19     7    31 1   
    20     7    32 1   
    21     8     9 1   
    22     8    10 1   
    23     8    33 1   
    24     9    34 1   
    25     9    35 1   
    26    10    11 1   
    27    11    12 2   
    28    11    13 1   
    29    13    14 1   
    30    13    16 1   
    31    13    36 1   
    32    14    15 1   
    33    14    37 1   
    34    14    38 1   
    35    15    39 1   
    36    16    17 ar  
    37    16    21 ar  
    38    17    18 ar  
    39    17    40 1   
    40    18    19 ar  
    41    18    41 1   
    42    19    20 ar  
    43    19    42 1   
    44    20    21 ar  
    45    20    43 1   
    46    21    44 1   
@<TRIPOS>SUBSTRUCTURE
     1 OIN         1 TEMP              0 ****  ****    0 ROOT
