@<TRIPOS>MOLECULE
OIO
   32    32     1     0     0
SMALL
bcc


@<TRIPOS>ATOM
      1 C1          0.0660   -0.0170   -0.0640 c3        1 OIO      0.034300
      2 C2          1.5950   -0.0560   -0.0460 c3        1 OIO     -0.099400
      3 C3          2.0870   -0.0380    1.3860 c3        1 OIO     -0.079400
      4 C4          3.5990   -0.0490    1.4470 c3        1 OIO     -0.078400
      5 C5          4.0910   -0.0310    2.8790 c3        1 OIO     -0.078400
      6 C6          5.6040   -0.0050    2.9440 c3        1 OIO     -0.066400
      7 C7          6.1050   -0.0030    4.3680 c3        1 OIO     -0.195400
      8 C8          7.6230    0.2470    4.4250 c         1 OIO      0.908600
      9 O9          8.1090    1.1720    3.7120 o         1 OIO     -0.851800
     10 O10         8.3080   -0.4770    5.2030 o         1 OIO     -0.851800
     11 N11        -0.5240    0.0000   -1.3720 na        1 OIO     -0.197900
     12 C12        -0.5140    1.0670   -2.2740 cc        1 OIO     -0.253600
     13 C13        -1.1890    0.6130   -3.4240 cd        1 OIO      0.278200
     14 N14        -1.6030   -0.7050   -3.2470 nd        1 OIO     -0.678000
     15 C15        -1.1870   -1.0580   -2.0100 cc        1 OIO      0.381400
     16 H1         -0.2790    0.9050    0.4870 h1        1 OIO      0.057700
     17 H1A        -0.3300   -0.9200    0.4840 h1        1 OIO      0.057700
     18 H2          2.0080    0.8270   -0.6000 hc        1 OIO      0.053700
     19 H2A         1.9650   -0.9790   -0.5630 hc        1 OIO      0.053700
     20 H3          1.6980    0.8760    1.9080 hc        1 OIO      0.036700
     21 H3A         1.6830   -0.9300    1.9350 hc        1 OIO      0.036700
     22 H4          4.0050    0.8430    0.9010 hc        1 OIO      0.040200
     23 H4A         3.9910   -0.9620    0.9270 hc        1 OIO      0.040200
     24 H5          3.6780    0.8690    3.4060 hc        1 OIO      0.026700
     25 H5A         3.7060   -0.9350    3.4200 hc        1 OIO      0.026700
     26 H6          6.0180   -0.8960    2.4040 hc        1 OIO      0.045200
     27 H6A         5.9980    0.9100    2.4240 hc        1 OIO      0.045200
     28 H7          5.8690   -0.9760    4.8660 hc        1 OIO      0.019200
     29 H7A         5.6030    0.8120    4.9490 hc        1 OIO      0.019200
     30 H12        -0.0490    2.0210   -2.0400 h4        1 OIO      0.177000
     31 H13        -1.3910    1.1560   -4.3450 h4        1 OIO      0.035100
     32 H15        -1.3380   -2.0320   -1.5350 h5        1 OIO      0.057100
@<TRIPOS>BOND
     1    1    2 1   
     2    1   11 1   
     3    1   16 1   
     4    1   17 1   
     5    2    3 1   
     6    2   18 1   
     7    2   19 1   
     8    3    4 1   
     9    3   20 1   
    10    3   21 1   
    11    4    5 1   
    12    4   22 1   
    13    4   23 1   
    14    5    6 1   
    15    5   24 1   
    16    5   25 1   
    17    6    7 1   
    18    6   26 1   
    19    6   27 1   
    20    7    8 1   
    21    7   28 1   
    22    7   29 1   
    23    8    9 1   
    24    8   10 1   
    25   11   12 1   
    26   11   15 1   
    27   12   13 2   
    28   12   30 1   
    29   13   14 1   
    30   13   31 1   
    31   14   15 2   
    32   15   32 1   
@<TRIPOS>SUBSTRUCTURE
     1 OIO         1 TEMP              0 ****  ****    0 ROOT
