@<TRIPOS>MOLECULE
molecule
   32    32     1     0     0
SMALL
bcc


@<TRIPOS>ATOM
      1 C1           0.0000     0.0000     0.0000 c3         1 OIO       0.036300
      2 C2           1.5310     0.0000     0.0000 c3         1 OIO      -0.103400
      3 C3           2.0400     0.0000     1.4430 c3         1 OIO      -0.084400
      4 C4           3.5700    -0.0000     1.4430 c3         1 OIO      -0.079400
      5 C5           4.0800     0.0010     2.8860 c3         1 OIO      -0.088400
      6 C6           5.6100     0.0010     2.8860 c3         1 OIO      -0.063400
      7 C7           6.1190     0.0020     4.3290 c3         1 OIO      -0.183400
      8 C8           7.6260     0.0020     4.3290 c          1 OIO       0.890600
      9 O9           8.2300     0.0010     3.2820 o          1 OIO      -0.856800
     10 O10          8.2970     0.0020     5.4920 o          1 OIO      -0.856800
     11 N11         -0.4880    -0.0010    -1.3820 na         1 OIO      -0.182900
     12 C12         -0.7530     1.1000    -2.1500 cc         1 OIO      -0.275600
     13 C13         -1.1770     0.6490    -3.3450 cd         1 OIO       0.299200
     14 N14         -1.1710    -0.6930    -3.3080 nd         1 OIO      -0.708000
     15 C15         -0.7540    -1.0880    -2.1370 cc         1 OIO       0.393400
     16 H1          -0.3610     0.8850     0.5100 h1         1 OIO       0.060200
     17 H1A         -0.3610    -0.8840     0.5120 h1         1 OIO       0.060200
     18 H2           1.8920    -0.8850    -0.5110 hc         1 OIO       0.054200
     19 H2A          1.8920     0.8850    -0.5110 hc         1 OIO       0.054200
     20 H3           1.6790    -0.8850     1.9540 hc         1 OIO       0.037700
     21 H3A          1.6790     0.8850     1.9540 hc         1 OIO       0.037700
     22 H4           3.9310    -0.8850     0.9330 hc         1 OIO       0.041700
     23 H4A          3.9310     0.8840     0.9310 hc         1 OIO       0.041700
     24 H5           3.7180    -0.8830     3.3970 hc         1 OIO       0.029700
     25 H5A          3.7180     0.8860     3.3960 hc         1 OIO       0.029700
     26 H6           5.9720    -0.8840     2.3760 hc         1 OIO       0.045700
     27 H6A          5.9720     0.8850     2.3750 hc         1 OIO       0.045700
     28 H7           5.7580     0.8870     4.8380 hc         1 OIO       0.026700
     29 H7A          5.7580    -0.8820     4.8400 hc         1 OIO       0.026700
     30 H12         -0.6420     2.1360    -1.8530 h4         1 OIO       0.171000
     31 H13         -1.4730     1.2610    -4.1880 h4         1 OIO       0.034100
     32 H15         -0.6460    -2.1190    -1.8200 h5         1 OIO       0.062100
@<TRIPOS>BOND
     1     2     1 1
     2     1    11 1
     3     1    16 1
     4     1    17 1
     5     3     2 1
     6     2    18 1
     7     2    19 1
     8     4     3 1
     9     3    20 1
    10     3    21 1
    11     5     4 1
    12     4    22 1
    13     4    23 1
    14     6     5 1
    15     5    24 1
    16     5    25 1
    17     7     6 1
    18     6    26 1
    19     6    27 1
    20     8     7 1
    21     7    28 1
    22     7    29 1
    23     9     8 1
    24    10     8 1
    25    11    15 1
    26    11    12 1
    27    12    13 2
    28    12    30 1
    29    14    13 1
    30    13    31 1
    31    15    14 2
    32    15    32 1
@<TRIPOS>SUBSTRUCTURE
     1 OIO         1 TEMP              0 ****  ****    0 ROOT
