@<TRIPOS>MOLECULE
molecule
   51    52     1     0     0
SMALL
bcc


@<TRIPOS>ATOM
      1 O19          0.0000     0.0000     0.0000 o          1 OIR      -0.594100
      2 C18          1.2130     0.0000     0.0000 c          1 OIR       0.679100
      3 C20          1.9660     0.0000     1.3060 c3         1 OIR      -0.024600
      4 C21          1.1380     0.7220     2.3720 c3         1 OIR      -0.007100
      5 C23          1.9410     0.8310     3.6430 ca         1 OIR      -0.080300
      6 C24          2.7500     1.9300     3.8570 ca         1 OIR      -0.109000
      7 C25          3.4870     2.0290     5.0220 ca         1 OIR      -0.142000
      8 C26          3.4130     1.0300     5.9750 ca         1 OIR      -0.134000
      9 C27          2.6030    -0.0700     5.7600 ca         1 OIR      -0.142000
     10 C28          1.8630    -0.1680     4.5960 ca         1 OIR      -0.109000
     11 S26          2.2680    -1.7100     1.8310 sh         1 OIR      -0.360900
     12 N9           1.8870    -0.0010    -1.1660 ns         1 OIR      -0.550900
     13 C2           1.1560    -0.0000    -2.4360 c3         1 OIR       0.043700
     14 C11          0.7970    -1.4170    -2.8080 c          1 OIR       0.629100
     15 O12          1.1210    -2.3340    -2.0850 o          1 OIR      -0.622100
     16 N13          0.1170    -1.6620    -3.9460 ns         1 OIR      -0.541900
     17 C14         -0.2320    -3.0380    -4.3080 c3         1 OIR       0.002700
     18 C15         -0.4070    -3.1350    -5.8020 c          1 OIR       0.888600
     19 O16         -0.7310    -4.3090    -6.3650 o          1 OIR      -0.845300
     20 O17         -0.2570    -2.1550    -6.4920 o          1 OIR      -0.845300
     21 C19         -1.5370    -3.4320    -3.6140 c3         1 OIR      -0.090100
     22 C1           2.0330     0.6080    -3.5310 c3         1 OIR      -0.050100
     23 C3           2.2900     2.0600    -3.2180 ca         1 OIR      -0.071300
     24 C4           3.3880     2.4200    -2.4600 ca         1 OIR      -0.122500
     25 C5           3.6240     3.7520    -2.1740 ca         1 OIR      -0.129000
     26 C6           2.7620     4.7230    -2.6470 ca         1 OIR      -0.139000
     27 C7           1.6640     4.3640    -3.4060 ca         1 OIR      -0.129000
     28 C8           1.4310     3.0330    -3.6960 ca         1 OIR      -0.122500
     29 H20          2.9130     0.5100     1.1770 h1         1 OIR       0.061700
     30 H211         0.8830     1.7150     2.0200 hc         1 OIR       0.073700
     31 H212         0.2300     0.1630     2.5650 hc         1 OIR       0.073700
     32 H24          2.7880     2.7260     3.1230 ha         1 OIR       0.135500
     33 H25          4.1200     2.8920     5.1910 ha         1 OIR       0.124000
     34 H1           3.9850     1.1100     6.8900 ha         1 OIR       0.121000
     35 H27          2.5250    -0.8420     6.5170 ha         1 OIR       0.124000
     36 H28          1.1390    -0.9710     4.6470 ha         1 OIR       0.135500
     37 H26          3.5560    -1.9960     1.6880 hs         1 OIR       0.202800
     38 HN9          2.8860    -0.0600    -1.1650 hn         1 OIR       0.309500
     39 H2           0.2500     0.5850    -2.3310 h1         1 OIR       0.092700
     40 H13         -0.1850    -0.9020    -4.5220 hn         1 OIR       0.322500
     41 H14          0.5610    -3.7060    -3.9930 h1         1 OIR       0.072700
     42 H191        -1.3560    -3.5730    -2.5550 hc         1 OIR       0.032033
     43 H192        -2.2720    -2.6490    -3.7540 hc         1 OIR       0.032033
     44 H193        -1.9080    -4.3560    -4.0420 hc         1 OIR       0.032033
     45 H11          2.9760     0.0760    -3.5760 hc         1 OIR       0.073200
     46 H12          1.5280     0.5280    -4.4850 hc         1 OIR       0.073200
     47 H4           4.0640     1.6590    -2.0890 ha         1 OIR       0.131000
     48 H5           4.4840     4.0350    -1.5790 ha         1 OIR       0.123500
     49 H6           2.9450     5.7670    -2.4220 ha         1 OIR       0.120000
     50 H7           0.9900     5.1250    -3.7780 ha         1 OIR       0.123500
     51 H8           0.5710     2.7510    -4.2910 ha         1 OIR       0.131000
@<TRIPOS>BOND
     1     1     2 2
     2     2     3 1
     3     2    12 1
     4     3     4 1
     5     3    11 1
     6     3    29 1
     7     4     5 1
     8     4    30 1
     9     4    31 1
    10     5     6 ar
    11     5    10 ar
    12     6     7 ar
    13     6    32 1
    14     7     8 ar
    15     7    33 1
    16     8     9 ar
    17     8    34 1
    18     9    10 ar
    19     9    35 1
    20    10    36 1
    21    11    37 1
    22    12    13 1
    23    12    38 1
    24    13    14 1
    25    13    22 1
    26    13    39 1
    27    14    15 2
    28    14    16 1
    29    16    17 1
    30    16    40 1
    31    17    18 1
    32    17    21 1
    33    17    41 1
    34    18    19 1
    35    18    20 1
    36    21    42 1
    37    21    43 1
    38    21    44 1
    39    22    23 1
    40    22    45 1
    41    22    46 1
    42    23    24 ar
    43    23    28 ar
    44    24    25 ar
    45    24    47 1
    46    25    26 ar
    47    25    48 1
    48    26    27 ar
    49    26    49 1
    50    27    28 ar
    51    27    50 1
    52    28    51 1
@<TRIPOS>SUBSTRUCTURE
     1 OIR         1 TEMP              0 ****  ****    0 ROOT
