@<TRIPOS>MOLECULE
OJ8
   52    52     1     0     0
SMALL
bcc


@<TRIPOS>ATOM
      1 C12         0.2540    0.7260   -0.2470 c3        1 OJ8     -0.165000
      2 C13        -1.2230   -0.0260   -3.4080 c1        1 OJ8      0.104000
      3 O14        -1.1790   -0.1740   -4.7180 oh        1 OJ8     -0.208000
      4 C15        -2.4840   -0.5260   -2.8280 c2        1 OJ8     -0.102000
      5 CAB        -0.6140    0.6270    8.8760 c2        1 OJ8     -0.113000
      6 CAC        -7.9650   -2.9030   -1.4230 c1        1 OJ8     -0.221000
      7 CAD        -0.3850    0.2320    7.6130 c2        1 OJ8     -0.095000
      8 CAE        -0.4420    1.9730    9.3710 c2        1 OJ8     -0.445000
      9 CAF        -7.7950   -2.4740   -2.5260 c1        1 OJ8     -0.221000
     10 CAG        -2.4520   -0.0830    2.0510 c1        1 OJ8      0.154000
     11 CAH         0.0970    1.0370    6.5150 c2        1 OJ8     -0.224000
     12 CAI        -0.3230    2.3620   10.6230 c1        1 OJ8      0.182000
     13 CAJ        -5.3820   -1.4310    0.6930 c2        1 OJ8     -0.188000
     14 CAK         1.0030    3.7090    3.5660 c2        1 OJ8     -0.028000
     15 CAL         0.7640    3.5760    2.1610 c2        1 OJ8     -0.202000
     16 CAM        -4.4350   -1.3160   -2.2280 c2        1 OJ8     -0.166000
     17 CAN         1.1690    1.2660    3.8010 c1        1 OJ8     -0.094000
     18 CAO         1.7270    0.0830    1.7160 c3        1 OJ8     -0.110000
     19 CAP         1.3750   -0.1550    0.2590 c3        1 OJ8     -0.160000
     20 CAQ         0.4780    2.1800    0.1160 c3        1 OJ8     -0.135000
     21 NAR        -3.2570   -0.4880    1.2840 n2        1 OJ8     -0.297000
     22 NAS        -3.6120   -1.0630   -3.3170 n2        1 OJ8     -0.085000
     23 OAU        -2.5330   -0.4120   -1.4210 os        1 OJ8     -0.065000
     24 CAV         1.0430    1.9820    6.6430 c2        1 OJ8      0.013000
     25 CAW         1.1840    2.5830    4.3350 c2        1 OJ8     -0.068000
     26 CAX         0.6950    2.3520    1.5750 c2        1 OJ8     -0.035000
     27 CAY         0.8220    1.1110    2.3910 c3        1 OJ8     -0.146000
     28 CAZ        -4.1630   -0.9520    0.3500 c2        1 OJ8      0.116000
     29 CBA        -3.7760   -0.9180   -1.0560 c2        1 OJ8     -0.022000
     30 H12        -0.7220    0.3810    0.1910 hc        1 OJ8      0.096000
     31 H13         0.1570    0.6240   -1.3630 hc        1 OJ8      0.096000
     32 HO14       -0.3190    0.1800   -5.0150 ho        1 OJ8      0.270000
     33 HAC        -7.6510   -2.0950   -3.5080 ha        1 OJ8      0.223500
     34 HAD        -0.5970   -0.8190    7.3400 ha        1 OJ8      0.128000
     35 HAE        -0.4190    2.7680    8.5890 ha        1 OJ8      0.197000
     36 HAF        -5.7330   -1.4830    1.7320 ha        1 OJ8      0.144500
     37 HAG        -8.1280   -3.2920   -0.4500 ha        1 OJ8      0.223500
     38 HAH        -0.3230    0.7860    5.5250 ha        1 OJ8      0.155000
     39 HAI         1.5620    2.2400    7.5850 h4        1 OJ8      0.161000
     40 HAJ        -6.0850   -1.7950   -0.0720 ha        1 OJ8      0.144500
     41 HAK         0.6440    4.4980    1.5720 ha        1 OJ8      0.136000
     42 HAL         1.0650    4.7190    4.0010 ha        1 OJ8      0.145000
     43 HAM        -5.4270   -1.7590   -2.3460 h4        1 OJ8      0.202000
     44 HAN        -0.2360    0.6580    2.4500 hc        1 OJ8      0.200000
     45 HAO         2.7880    0.4380    1.7940 hc        1 OJ8      0.095500
     46 HAOA        1.6580   -0.8750    2.2960 hc        1 OJ8      0.095500
     47 HAP         2.2890    0.0190   -0.3700 hc        1 OJ8      0.079500
     48 HAPA        1.0820   -1.2280    0.1150 hc        1 OJ8      0.079500
     49 HAQ         1.3780    2.5720   -0.4310 hc        1 OJ8      0.098000
     50 HAQA       -0.4030    2.7920   -0.2150 hc        1 OJ8      0.098000
     51 OAT         1.5410    2.8130    5.6650 os        1 OJ8     -0.164000
     52 HAB        -0.9810   -0.1060    9.6160 ha        1 OJ8      0.124000
@<TRIPOS>BOND
     1    1   19 1
     2    1   20 1
     3    1   30 1
     4    1   31 1
     5    2    3 1
     6    2    4 1
     7    3   32 1
     8    4   22 1
     9    4   23 1
    10    5    7 1
    11    5    8 1
    12    5   52 1
    13    6    9 1
    14    6   37 1
    15    7   11 1
    16    7   34 1
    17    8   12 1
    18    8   35 1
    19    9   33 1
    20   10   21 1
    21   11   24 1
    22   11   38 1
    23   13   28 1
    24   13   36 1
    25   13   40 1
    26   14   15 1
    27   14   25 1
    28   14   42 1
    29   15   26 1
    30   15   41 1
    31   16   22 1
    32   16   29 1
    33   16   43 1
    34   17   25 1
    35   17   27 1
    36   18   19 1
    37   18   27 1
    38   18   45 1
    39   18   46 1
    40   19   47 1
    41   19   48 1
    42   20   26 1
    43   20   49 1
    44   20   50 1
    45   21   28 1
    46   23   29 1
    47   24   39 1
    48   24   51 1
    49   25   51 1
    50   26   27 1
    51   27   44 1
    52   28   29 1
@<TRIPOS>SUBSTRUCTURE
     1 OJ8         1 TEMP              0 ****  ****    0 ROOT
