@<TRIPOS>MOLECULE
molecule
   29    30     1     0     0
SMALL
bcc


@<TRIPOS>ATOM
      1 O01          0.0000     0.0000     0.0000 o          1 OJD      -0.628500
      2 C02          1.2140     0.0000     0.0000 c          1 OJD       0.698500
      3 C03          2.0800     0.0000     1.2410 c3         1 OJD      -0.169400
      4 C04          3.4760     0.4200     0.7280 c3         1 OJD      -0.087700
      5 C05          4.5810    -0.3370     1.4670 c3         1 OJD      -0.070400
      6 C06          5.9470     0.1910     1.0250 c3         1 OJD      -0.037100
      7 C07          7.0350    -0.5550     1.7530 ca         1 OJD      -0.085300
      8 C08          7.5650    -1.7100     1.2090 ca         1 OJD      -0.125000
      9 C09          8.5630    -2.3940     1.8790 ca         1 OJD      -0.125000
     10 C10          9.0320    -1.9220     3.0900 ca         1 OJD      -0.129000
     11 C11          8.5040    -0.7660     3.6320 ca         1 OJD      -0.125000
     12 C12          7.5080    -0.0800     2.9610 ca         1 OJD      -0.125000
     13 C13          3.4100    -0.0100    -0.7550 c3         1 OJD       0.092000
     14 N14          1.9840    -0.0050    -1.1020 ns         1 OJD      -0.584900
     15 H031         1.7090     0.7210     1.9600 hc         1 OJD       0.078200
     16 H032         2.1190    -0.9920     1.6740 hc         1 OJD       0.078200
     17 H14          1.6370    -0.2320    -2.0130 hn         1 OJD       0.333500
     18 H04          3.6100     1.4920     0.8110 hc         1 OJD       0.069700
     19 H051         4.5110    -1.3940     1.2380 hc         1 OJD       0.052700
     20 H052         4.4670    -0.1920     2.5350 hc         1 OJD       0.052700
     21 H131         3.9470     0.6990    -1.3730 h1         1 OJD       0.045200
     22 H132         3.8190    -1.0060    -0.8730 h1         1 OJD       0.045200
     23 H061         6.0170     1.2470     1.2540 hc         1 OJD       0.048700
     24 H062         6.0620     0.0450    -0.0430 hc         1 OJD       0.048700
     25 H08          7.1970    -2.0800     0.2600 ha         1 OJD       0.129000
     26 H12          7.0940     0.8270     3.3870 ha         1 OJD       0.129000
     27 H09          8.9770    -3.3000     1.4530 ha         1 OJD       0.130000
     28 H10          9.8130    -2.4590     3.6140 ha         1 OJD       0.130000
     29 H11          8.8730    -0.3950     4.5810 ha         1 OJD       0.130000
@<TRIPOS>BOND
     1     1     2 2
     2     2     3 1
     3     2    14 1
     4     3     4 1
     5     4     5 1
     6     4    13 1
     7     5     6 1
     8     6     7 1
     9     7     8 ar
    10     7    12 ar
    11     8     9 ar
    12     9    10 ar
    13    10    11 ar
    14    11    12 ar
    15    13    14 1
    16     3    15 1
    17     3    16 1
    18    14    17 1
    19     4    18 1
    20     5    19 1
    21     5    20 1
    22    13    21 1
    23    13    22 1
    24     6    23 1
    25     6    24 1
    26     8    25 1
    27    12    26 1
    28     9    27 1
    29    10    28 1
    30    11    29 1
@<TRIPOS>SUBSTRUCTURE
     1 OJD         1 TEMP              0 ****  ****    0 ROOT
