@<TRIPOS>MOLECULE
OJD
   29    30     1     0     0
SMALL
bcc


@<TRIPOS>ATOM
      1 O01          0.0000     0.0000     0.0000 o          1 OJD      -0.666500
      2 C02          1.2140     0.0000     0.0000 c          1 OJD       0.620500
      3 C03          2.0800     0.0000     1.2410 c3         1 OJD      -0.113400
      4 C04          3.4760     0.4200     0.7280 c3         1 OJD      -0.057700
      5 C05          4.5810    -0.3370     1.4670 c3         1 OJD      -0.018400
      6 C06          5.9470     0.1910     1.0250 c3         1 OJD       0.027900
      7 C07          7.0350    -0.5550     1.7530 ca         1 OJD      -0.093300
      8 C08          7.5650    -1.7100     1.2090 ca         1 OJD      -0.098000
      9 C09          8.5630    -2.3940     1.8790 ca         1 OJD      -0.097000
     10 C10          9.0320    -1.9220     3.0900 ca         1 OJD      -0.103000
     11 C11          8.5040    -0.7660     3.6320 ca         1 OJD      -0.097000
     12 C12          7.5080    -0.0800     2.9610 ca         1 OJD      -0.098000
     13 C13          3.4100    -0.0100    -0.7550 c3         1 OJD       0.035000
     14 N14          1.9840    -0.0050    -1.1020 ns         1 OJD      -0.203900
     15 H031         1.7090     0.7210     1.9600 hc         1 OJD       0.045200
     16 H032         2.1190    -0.9920     1.6740 hc         1 OJD       0.045200
     17 H14          1.6370    -0.2320    -2.0130 hn         1 OJD       0.190500
     18 H04          3.6100     1.4920     0.8110 hc         1 OJD       0.042700
     19 H051         4.5110    -1.3940     1.2380 hc         1 OJD       0.023700
     20 H052         4.4670    -0.1920     2.5350 hc         1 OJD       0.023700
     21 H131         3.9470     0.6990    -1.3730 h1         1 OJD       0.017200
     22 H132         3.8190    -1.0060    -0.8730 h1         1 OJD       0.017200
     23 H061         6.0170     1.2470     1.2540 hc         1 OJD       0.019700
     24 H062         6.0620     0.0450    -0.0430 hc         1 OJD       0.019700
     25 H08          7.1970    -2.0800     0.2600 ha         1 OJD       0.105000
     26 H12          7.0940     0.8270     3.3870 ha         1 OJD       0.105000
     27 H09          8.9770    -3.3000     1.4530 ha         1 OJD       0.102500
     28 H10          9.8130    -2.4590     3.6140 ha         1 OJD       0.103000
     29 H11          8.8730    -0.3950     4.5810 ha         1 OJD       0.102500
@<TRIPOS>BOND
     1     1     2 2   
     2     2     3 1   
     3     2    14 1   
     4     3     4 1   
     5     3    15 1   
     6     3    16 1   
     7     4     5 1   
     8     4    13 1   
     9     4    18 1   
    10     5     6 1   
    11     5    19 1   
    12     5    20 1   
    13     6     7 1   
    14     6    23 1   
    15     6    24 1   
    16     7     8 ar  
    17     7    12 ar  
    18     8     9 ar  
    19     8    25 1   
    20     9    10 ar  
    21     9    27 1   
    22    10    11 ar  
    23    10    28 1   
    24    11    12 ar  
    25    11    29 1   
    26    12    26 1   
    27    13    14 1   
    28    13    21 1   
    29    13    22 1   
    30    14    17 1   
@<TRIPOS>SUBSTRUCTURE
     1 OJD         1 TEMP              0 ****  ****    0 ROOT
