@<TRIPOS>MOLECULE
OK1
   37    39     1     0     0
SMALL
bcc


@<TRIPOS>ATOM
      1 C4           0.0000     0.0000     0.0000 ca         1 OK1      -0.040000
      2 C5           1.3810     0.0000     0.0000 ca         1 OK1      -0.071600
      3 C6           2.0780     0.0000     1.2020 ca         1 OK1       0.142100
      4 C7           4.0910    -0.0000     2.4690 c3         1 OK1       0.211400
      5 C8           5.6080    -0.0010     2.2640 cy         1 OK1      -0.074700
      6 C10          7.3830     0.9070     2.9800 cy         1 OK1      -0.047400
      7 C13          0.0060     0.0010     2.4090 ca         1 OK1       0.089100
      8 C14         -2.1460     0.0010     2.8690 c          1 OK1       0.744600
      9 N           -2.0490     0.0010     1.5250 n          1 OK1       0.026000
     10 C2          -3.1660     0.0010     0.5760 c3         1 OK1       0.060000
     11 C1          -3.5550    -1.4420     0.2460 c3         1 OK1      -0.158400
     12 C           -4.7040    -1.4420    -0.7290 c          1 OK1       0.985600
     13 O1          -5.1640    -0.3950    -1.1210 o          1 OK1      -0.896300
     14 O           -5.2160    -2.6040    -1.1630 o          1 OK1      -0.896300
     15 O3          -0.9150     0.0020     3.4050 os         1 OK1      -0.265200
     16 C3          -0.6900     0.0010     1.2010 ca         1 OK1      -0.172400
     17 C12          1.3920    -0.0000     2.4050 ca         1 OK1      -0.187000
     18 Cl           2.2480    -0.0010    -1.5040 cl         1 OK1      -0.017400
     19 O2           3.4390    -0.0010     1.1980 os         1 OK1      -0.296900
     20 C11          6.2100     1.4060     2.1190 cy         1 OK1      -0.037400
     21 C9           6.4070    -0.1240     3.5710 cy         1 OK1      -0.037400
     22 H1          -0.5420     0.0000    -0.9380 ha         1 OK1       0.136000
     23 H2           3.8020    -0.8850     3.0240 h1         1 OK1       0.004700
     24 H3           3.8020     0.8840     3.0230 h1         1 OK1       0.004700
     25 H4           5.9530    -0.6840     1.4970 hc         1 OK1       0.055700
     26 H5           7.7180     1.6390     3.7050 hc         1 OK1       0.022200
     27 H6           8.1750     0.4550     2.3950 hc         1 OK1       0.022200
     28 H7          -2.8690     0.5110    -0.3320 h1         1 OK1       0.047200
     29 H8          -4.0140     0.5110     1.0170 h1         1 OK1       0.047200
     30 H9          -3.8520    -1.9520     1.1540 hc         1 OK1       0.017200
     31 H10         -2.7070    -1.9520    -0.1940 hc         1 OK1       0.017200
     32 H12          1.9370    -0.0000     3.3410 ha         1 OK1       0.126000
     33 H13          5.6210     2.1720     2.6090 hc         1 OK1       0.025950
     34 H14          6.5000     1.6400     1.1020 hc         1 OK1       0.025950
     35 H15          5.8680     0.2490     4.4340 hc         1 OK1       0.025950
     36 H16          6.8530    -1.1020     3.7050 hc         1 OK1       0.025950
     37 O4          -3.1850     0.0030     3.4990 o          1 OK1      -0.663500
@<TRIPOS>BOND
     1     1     2 ar  
     2     1    16 ar  
     3     1    22 1   
     4     2     3 ar  
     5     2    18 1   
     6     3    17 ar  
     7     3    19 1   
     8     4     5 1   
     9     4    19 1   
    10     4    23 1   
    11     4    24 1   
    12     5    20 1   
    13     5    21 1   
    14     5    25 1   
    15     6    20 1   
    16     6    21 1   
    17     6    26 1   
    18     6    27 1   
    19     7    15 1   
    20     7    16 ar  
    21     7    17 ar  
    22     8     9 1   
    23     8    15 1   
    24     8    37 2   
    25     9    10 1   
    26     9    16 1   
    27    10    11 1   
    28    10    28 1   
    29    10    29 1   
    30    11    12 1   
    31    11    30 1   
    32    11    31 1   
    33    12    13 1   
    34    12    14 1   
    35    17    32 1   
    36    20    33 1   
    37    20    34 1   
    38    21    35 1   
    39    21    36 1   
@<TRIPOS>SUBSTRUCTURE
     1 OK1         1 TEMP              0 ****  ****    0 ROOT
