@<TRIPOS>MOLECULE
molecule
   37    39     1     0     0
SMALL
bcc


@<TRIPOS>ATOM
      1 C4           0.0000     0.0000     0.0000 ca         1 OK1      -0.079000
      2 C5           1.3810     0.0000     0.0000 ca         1 OK1       0.005400
      3 C6           2.0780     0.0000     1.2020 ca         1 OK1       0.134100
      4 C7           4.0910    -0.0000     2.4690 c3         1 OK1       0.147400
      5 C8           5.6080    -0.0010     2.2640 cy         1 OK1      -0.088700
      6 C10          7.3830     0.9070     2.9800 cy         1 OK1      -0.106400
      7 C13          0.0060     0.0010     2.4090 ca         1 OK1       0.080100
      8 C14         -2.1460     0.0010     2.8690 c          1 OK1       0.816600
      9 N           -2.0490     0.0010     1.5250 n          1 OK1      -0.363000
     10 C2          -3.1660     0.0010     0.5760 c3         1 OK1       0.130000
     11 C1          -3.5550    -1.4420     0.2460 c3         1 OK1      -0.207400
     12 C           -4.7040    -1.4420    -0.7290 c          1 OK1       0.895600
     13 O1          -5.1640    -0.3950    -1.1210 o          1 OK1      -0.846800
     14 O           -5.2160    -2.6040    -1.1630 o          1 OK1      -0.846800
     15 O3          -0.9150     0.0020     3.4050 os         1 OK1      -0.285200
     16 C3          -0.6900     0.0010     1.2010 ca         1 OK1      -0.028400
     17 C12          1.3920    -0.0000     2.4050 ca         1 OK1      -0.195000
     18 Cl           2.2480    -0.0010    -1.5040 cl         1 OK1      -0.096400
     19 O2           3.4390    -0.0010     1.1980 os         1 OK1      -0.316900
     20 C11          6.2100     1.4060     2.1190 cy         1 OK1      -0.093900
     21 C9           6.4070    -0.1240     3.5710 cy         1 OK1      -0.093900
     22 H1          -0.5420     0.0000    -0.9380 ha         1 OK1       0.170000
     23 H2           3.8020    -0.8850     3.0240 h1         1 OK1       0.037200
     24 H3           3.8020     0.8840     3.0230 h1         1 OK1       0.037200
     25 H4           5.9530    -0.6840     1.4970 hc         1 OK1       0.083700
     26 H5           7.7180     1.6390     3.7050 hc         1 OK1       0.051700
     27 H6           8.1750     0.4550     2.3950 hc         1 OK1       0.051700
     28 H7          -2.8690     0.5110    -0.3320 h1         1 OK1       0.076200
     29 H8          -4.0140     0.5110     1.0170 h1         1 OK1       0.076200
     30 H9          -3.8520    -1.9520     1.1540 hc         1 OK1       0.043200
     31 H10         -2.7070    -1.9520    -0.1940 hc         1 OK1       0.043200
     32 H12          1.9370    -0.0000     3.3410 ha         1 OK1       0.146000
     33 H13          5.6210     2.1720     2.6090 hc         1 OK1       0.055700
     34 H14          6.5000     1.6400     1.1020 hc         1 OK1       0.055700
     35 H15          5.8680     0.2490     4.4340 hc         1 OK1       0.055700
     36 H16          6.8530    -1.1020     3.7050 hc         1 OK1       0.055700
     37 O4          -3.1850     0.0030     3.4990 o          1 OK1      -0.603500
@<TRIPOS>BOND
     1    13    12 1
     2    12    14 1
     3    12    11 1
     4    18     2 1
     5    10    11 1
     6    10     9 1
     7     1     2 ar
     8     1    16 ar
     9     2     3 ar
    10     9    16 1
    11     9     8 1
    12    16     7 ar
    13     3    19 1
    14     3    17 ar
    15    19     4 1
    16     8    37 2
    17     8    15 1
    18     7    17 ar
    19     7    15 1
    20    20     5 1
    21    20     6 1
    22     4     5 1
    23     5    21 1
    24     6    21 1
    25     1    22 1
    26     4    23 1
    27     4    24 1
    28     5    25 1
    29     6    26 1
    30     6    27 1
    31    10    28 1
    32    10    29 1
    33    11    30 1
    34    11    31 1
    35    17    32 1
    36    20    33 1
    37    20    34 1
    38    21    35 1
    39    21    36 1
@<TRIPOS>SUBSTRUCTURE
     1 OK1         1 TEMP              0 ****  ****    0 ROOT
