@<TRIPOS>MOLECULE
OKD
   79    79     1     0     0
SMALL
bcc


@<TRIPOS>ATOM
      1 CAA          0.0000     0.0000     0.0000 c3         1 OKD       0.253700
      2 OBC          1.4290     0.0000     0.0000 os         1 OKD      -0.405600
      3 CAL          2.0100     0.0000     1.3060 c3         1 OKD       0.206400
      4 CAM          3.5350     0.0000     1.1860 c3         1 OKD       0.208400
      5 OBD          3.9650     1.2210     0.5810 os         1 OKD      -0.397600
      6 CAN          5.3810     1.3230     0.4220 c3         1 OKD       0.207400
      7 CAO          5.7260     2.6630    -0.2320 c3         1 OKD       0.208400
      8 OBE          5.3670     3.7290     0.6490 os         1 OKD      -0.402600
      9 CAP          5.6480     5.0320     0.1310 c3         1 OKD       0.207400
     10 CAQ          5.2250     6.0890     1.1520 c3         1 OKD       0.208400
     11 OBF          6.0310     5.9670     2.3260 os         1 OKD      -0.391600
     12 CAR          5.7150     6.9140     3.3490 c3         1 OKD       0.206400
     13 CAS          6.6340     6.6910     4.5520 c3         1 OKD       0.212400
     14 OBG          7.9840     6.9740     4.1770 os         1 OKD      -0.405600
     15 CAX          8.9300     6.7960     5.2340 c3         1 OKD       0.222100
     16 CBL         10.3130     7.1200     4.7320 cc         1 OKD       0.227600
     17 CAI         10.6470     7.5200     3.4820 cd         1 OKD      -0.433600
     18 NAY         11.4510     7.0750     5.4340 nc         1 OKD      -0.347000
     19 NAZ         12.4250     7.4190     4.6680 nd         1 OKD      -0.360800
     20 NBO         11.9890     7.6940     3.4900 na         1 OKD       0.621400
     21 CAW         12.8040     8.1260     2.3510 c3         1 OKD      -0.049700
     22 CAK         13.6200     9.3580     2.7450 c3         1 OKD      -0.044400
     23 CAJ         14.4710     9.8090     1.5560 c3         1 OKD      -0.039400
     24 CB          15.2860    11.0420     1.9510 c3         1 OKD      -0.021400
     25 CA          16.1370    11.4920     0.7620 c3         1 OKD      -0.070300
     26 C           16.8460    12.7750     1.1100 c          1 OKD       0.975600
     27 OXT         16.1360    13.8680     1.4320 o          1 OKD      -0.904800
     28 O           18.0540    12.8220     1.0970 o          1 OKD      -0.904800
     29 N           17.1270    10.4570     0.4500 ns         1 OKD      -0.213900
     30 CBK         17.6340    10.3630    -0.7960 c          1 OKD       0.595100
     31 OAE         17.2700    11.1370    -1.6600 o          1 OKD      -0.730100
     32 NBB         18.5430     9.4110    -1.0830 ns         1 OKD      -0.164900
     33 CBN         19.0930     9.3090    -2.4370 c3         1 OKD      -0.085300
     34 CBJ         18.1700     8.4820    -3.2940 c          1 OKD       0.991600
     35 OAH         17.1570     8.0240    -2.8220 o          1 OKD      -0.928800
     36 OAD         18.4740     8.2530    -4.5800 o          1 OKD      -0.928800
     37 CAV         20.4690     8.6420    -2.3790 c3         1 OKD      -0.012400
     38 CAT         21.4410     9.5440    -1.6130 c3         1 OKD      -0.142400
     39 CBH         22.7960     8.8860    -1.5560 c          1 OKD       0.986600
     40 OAF         22.9670     7.8090    -2.0740 o          1 OKD      -0.935300
     41 OAB         23.8120     9.5000    -0.9290 o          1 OKD      -0.935300
     42 HAA1        -0.3610     0.8850     0.5110 h1         1 OKD      -0.017300
     43 HAA2        -0.3610    -0.8850     0.5110 h1         1 OKD      -0.017300
     44 HAA3        -0.3610    -0.0000    -1.0210 h1         1 OKD      -0.017300
     45 HAL1         1.6900    -0.8850     1.8430 h1         1 OKD      -0.006300
     46 HAL2         1.6900     0.8840     1.8430 h1         1 OKD      -0.006300
     47 HAM1         3.8490    -0.8370     0.5740 h1         1 OKD      -0.005800
     48 HAM2         3.9740    -0.0890     2.1720 h1         1 OKD      -0.005800
     49 HAN1         5.7330     0.5140    -0.2070 h1         1 OKD      -0.003300
     50 HAN2         5.8590     1.2610     1.3920 h1         1 OKD      -0.003300
     51 HAO1         5.1790     2.7630    -1.1620 h1         1 OKD      -0.001300
     52 HAO2         6.7900     2.7040    -0.4330 h1         1 OKD      -0.001300
     53 HAP1         6.7100     5.1220    -0.0630 h1         1 OKD       0.000200
     54 HAP2         5.0990     5.1800    -0.7910 h1         1 OKD       0.000200
     55 HAQ1         4.1840     5.9430     1.4120 h1         1 OKD      -0.006800
     56 HAQ2         5.3560     7.0760     0.7260 h1         1 OKD      -0.006800
     57 HAR1         4.6840     6.7860     3.6540 h1         1 OKD      -0.008300
     58 HAR2         5.8570     7.9180     2.9670 h1         1 OKD      -0.008300
     59 HAS1         6.3380     7.3490     5.3600 h1         1 OKD      -0.008300
     60 HAS2         6.5580     5.6610     4.8790 h1         1 OKD      -0.008300
     61 HAX1         8.6800     7.4560     6.0560 h1         1 OKD      -0.007800
     62 HAX2         8.9010     5.7680     5.5750 h1         1 OKD      -0.007800
     63 HAI          9.9760     7.6680     2.6450 h4         1 OKD       0.169000
     64 HAW1        12.1580     8.3720     1.5170 h1         1 OKD       0.046700
     65 HAW2        13.4750     7.3250     2.0640 h1         1 OKD       0.046700
     66 HAK1        12.9490    10.1580     3.0330 hc         1 OKD       0.024700
     67 HAK2        14.2660     9.1110     3.5790 hc         1 OKD       0.024700
     68 HAJ1        13.8240    10.0550     0.7220 hc         1 OKD       0.026200
     69 HAJ2        15.1420     9.0090     1.2680 hc         1 OKD       0.026200
     70 HB1C        15.9320    10.7960     2.7850 hc         1 OKD       0.017700
     71 HB2C        14.6150    11.8420     2.2380 hc         1 OKD       0.017700
     72 HA          15.4990    11.6540    -0.0980 h1         1 OKD       0.055700
     73 H           17.4590     9.8480     1.1720 hn         1 OKD       0.141500
     74 HBB         18.8110     8.7480    -0.3830 hn         1 OKD       0.143500
     75 HBN         19.1890    10.3000    -2.8630 h1         1 OKD       0.054700
     76 HAV1        20.8380     8.4870    -3.3860 hc         1 OKD       0.025200
     77 HAV2        20.3870     7.6880    -1.8740 hc         1 OKD       0.025200
     78 HAT1        21.0720     9.6990    -0.6060 hc         1 OKD       0.011200
     79 HAT2        21.5230    10.4980    -2.1190 hc         1 OKD       0.011200
@<TRIPOS>BOND
     1     1     2 1   
     2     1    42 1   
     3     1    43 1   
     4     1    44 1   
     5     2     3 1   
     6     3     4 1   
     7     3    45 1   
     8     3    46 1   
     9     4     5 1   
    10     4    47 1   
    11     4    48 1   
    12     5     6 1   
    13     6     7 1   
    14     6    49 1   
    15     6    50 1   
    16     7     8 1   
    17     7    51 1   
    18     7    52 1   
    19     8     9 1   
    20     9    10 1   
    21     9    53 1   
    22     9    54 1   
    23    10    11 1   
    24    10    55 1   
    25    10    56 1   
    26    11    12 1   
    27    12    13 1   
    28    12    57 1   
    29    12    58 1   
    30    13    14 1   
    31    13    59 1   
    32    13    60 1   
    33    14    15 1   
    34    15    16 1   
    35    15    61 1   
    36    15    62 1   
    37    16    17 2   
    38    16    18 1   
    39    17    20 1   
    40    17    63 1   
    41    18    19 2   
    42    19    20 1   
    43    20    21 1   
    44    21    22 1   
    45    21    64 1   
    46    21    65 1   
    47    22    23 1   
    48    22    66 1   
    49    22    67 1   
    50    23    24 1   
    51    23    68 1   
    52    23    69 1   
    53    24    25 1   
    54    24    70 1   
    55    24    71 1   
    56    25    26 1   
    57    25    29 1   
    58    25    72 1   
    59    26    27 1   
    60    26    28 1   
    61    29    30 1   
    62    29    73 1   
    63    30    31 2   
    64    30    32 1   
    65    32    33 1   
    66    32    74 1   
    67    33    34 1   
    68    33    37 1   
    69    33    75 1   
    70    34    35 1   
    71    34    36 1   
    72    37    38 1   
    73    37    76 1   
    74    37    77 1   
    75    38    39 1   
    76    38    78 1   
    77    38    79 1   
    78    39    40 1   
    79    39    41 1   
@<TRIPOS>SUBSTRUCTURE
     1 OKD         1 TEMP              0 ****  ****    0 ROOT
