@<TRIPOS>MOLECULE
molecule
   13    12     1     0     0
SMALL
bcc


@<TRIPOS>ATOM
      1 O4           0.0000     0.0000     0.0000 o          1 OKG      -0.884300
      2 C5           1.3430     0.0000     0.0000 c          1 OKG       0.888600
      3 O3           1.9470     0.0000     1.0470 o          1 OKG      -0.884300
      4 C4           2.0960    -0.0000    -1.3050 c3         1 OKG      -0.162400
      5 C3           3.6010     0.0000    -1.0250 c3         1 OKG      -0.125400
      6 C2           4.3540    -0.0000    -2.3300 c          1 OKG       0.527100
      7 O5           3.7500    -0.0000    -3.3770 o          1 OKG      -0.633000
      8 O2           6.2690    -0.0000    -3.4520 o          1 OKG      -0.718000
      9 O1           5.6970    -0.0000    -2.3300 os         1 OKG      -0.168100
     10 H2           1.8340     0.8850    -1.8730 hc         1 OKG       0.037700
     11 H3           1.8340    -0.8850    -1.8730 hc         1 OKG       0.037700
     12 H4           3.8620    -0.8850    -0.4570 hc         1 OKG       0.042700
     13 H5           3.8620     0.8850    -0.4570 hc         1 OKG       0.042700
@<TRIPOS>BOND
     1     8     9 1
     2     9     6 1
     3     7     6 2
     4     6     5 1
     5     5     4 1
     6     4     2 1
     7     2     3 1
     8     2     1 1
     9     4    10 1
    10     4    11 1
    11     5    12 1
    12     5    13 1
@<TRIPOS>SUBSTRUCTURE
     1 OKG         1 TEMP              0 ****  ****    0 ROOT
