@<TRIPOS>MOLECULE
OKH
   66    70     1     0     0
SMALL
bcc


@<TRIPOS>ATOM
      1 C1           0.0000     0.0000     0.0000 ca         1 OKH      -0.070000
      2 C2           1.4010     0.0000     0.0000 ca         1 OKH      -0.072600
      3 C3           2.1020     0.0000     1.2070 ca         1 OKH      -0.146000
      4 C4          -0.6920     0.0010     1.1730 ca         1 OKH      -0.089000
      5 C5          -0.0040     0.0010     2.3940 ca         1 OKH       0.045400
      6 C6           1.4050     0.0000     2.4010 ca         1 OKH      -0.248200
      7 N7           1.7820    -0.0000     3.7310 na         1 OKH       0.346700
      8 C8           0.6350    -0.0010     4.4740 cc         1 OKH       0.225400
      9 N9          -0.4080     0.0020     3.6790 nd         1 OKH      -0.507100
     10 C10          0.5780    -0.0010     5.9520 ca         1 OKH      -0.037900
     11 C11          3.1540    -0.0010     4.2470 c3         1 OKH      -0.135000
     12 C12          3.4190     1.2920     4.9730 c          1 OKH       0.561100
     13 C13          4.1360    -0.1430     3.0830 c3         1 OKH      -0.076700
     14 O14          2.7950     2.2900     4.6800 o          1 OKH      -0.615100
     15 N15          4.3470     1.3390     5.9490 ns         1 OKH      -0.203900
     16 C16          4.5290     2.5670     6.7280 c3         1 OKH       0.018700
     17 C17          2.1380    -0.0010    -1.2770 c          1 OKH       0.975200
     18 O18          1.4630    -0.0010    -2.4440 o          1 OKH      -0.884300
     19 O19          3.3530    -0.0020    -1.2780 o          1 OKH      -0.884300
     20 C20         -0.5840     0.4060     6.6080 ca         1 OKH      -0.107500
     21 C21         -0.6310     0.4020     7.9870 ca         1 OKH      -0.099000
     22 C22          0.4720    -0.0020     8.7190 ca         1 OKH      -0.044600
     23 C23          1.6290    -0.4060     8.0730 ca         1 OKH      -0.099000
     24 C24          1.6850    -0.4140     6.6950 ca         1 OKH      -0.107500
     25 C25          5.5670     0.0210     3.6010 c3         1 OKH      -0.050900
     26 C26          6.5490    -0.1200     2.4360 c3         1 OKH      -0.033400
     27 C27          6.3930    -1.5030     1.8010 c3         1 OKH      -0.024400
     28 C28          4.9620    -1.6670     1.2840 c3         1 OKH      -0.033400
     29 C29          3.9790    -1.5260     2.4480 c3         1 OKH      -0.050900
     30 C30          5.9520     2.6100     7.2870 c3         1 OKH      -0.044400
     31 C31          6.1430     3.8910     8.1010 c3         1 OKH      -0.017900
     32 C32          5.1400     3.9150     9.2560 c3         1 OKH      -0.028400
     33 C33          3.7160     3.8730     8.6970 c3         1 OKH      -0.017900
     34 C34          3.5260     2.5910     7.8830 c3         1 OKH      -0.044400
     35 Cl35         0.4060    -0.0030    10.4540 cl         1 OKH      -0.056400
     36 H1          -0.5370    -0.0000    -0.9410 ha         1 OKH       0.132000
     37 H3           3.1850     0.0000     1.2090 ha         1 OKH       0.161000
     38 H4          -1.7750     0.0010     1.1620 ha         1 OKH       0.094000
     39 H11          3.2820    -0.8320     4.9300 h1         1 OKH       0.051700
     40 H13          3.9340     0.6180     2.3400 hc         1 OKH       0.096700
     41 HN15         4.8860     0.5250     6.1660 hn         1 OKH       0.177500
     42 H16          4.3670     3.4290     6.0930 h1         1 OKH       0.064700
     43 H20         -1.4480     0.7230     6.0370 ha         1 OKH       0.128500
     44 H21         -1.5320     0.7180     8.4980 ha         1 OKH       0.108000
     45 H23          2.4880    -0.7240     8.6510 ha         1 OKH       0.108000
     46 H24          2.5900    -0.7300     6.1910 ha         1 OKH       0.128500
     47 H25          5.7730    -0.7430     4.3400 hc         1 OKH       0.022700
     48 H25A         5.6780     1.0020     4.0470 hc         1 OKH       0.022700
     49 H26          6.3410     0.6410     1.6950 hc         1 OKH       0.033700
     50 H26A         7.5620    -0.0060     2.8040 hc         1 OKH       0.033700
     51 H27          7.0870    -1.6010     0.9750 hc         1 OKH       0.006200
     52 H27A         6.5970    -2.2650     2.5430 hc         1 OKH       0.006200
     53 H28          4.7560    -0.9030     0.5440 hc         1 OKH       0.033700
     54 H28A         4.8510    -2.6480     0.8370 hc         1 OKH       0.033700
     55 H29          2.9670    -1.6400     2.0810 hc         1 OKH       0.022700
     56 H29A         4.1880    -2.2870     3.1900 hc         1 OKH       0.022700
     57 H30          6.6610     2.5950     6.4680 hc         1 OKH       0.022450
     58 H30A         6.1140     1.7500     7.9260 hc         1 OKH       0.022450
     59 H31          7.1500     3.9190     8.4980 hc         1 OKH       0.015200
     60 H31A         5.9770     4.7510     7.4620 hc         1 OKH       0.015200
     61 H32          5.2740     4.8240     9.8300 hc         1 OKH       0.010700
     62 H32A         5.3030     3.0530     9.8910 hc         1 OKH       0.010700
     63 H33          3.5550     4.7330     8.0580 hc         1 OKH       0.015200
     64 H33A         3.0070     3.8870     9.5160 hc         1 OKH       0.015200
     65 H34          3.6910     1.7320     8.5220 hc         1 OKH       0.022450
     66 H34A         2.5190     2.5640     7.4850 hc         1 OKH       0.022450
@<TRIPOS>BOND
     1     1     2 ar  
     2     1     4 ar  
     3     1    36 1   
     4     2     3 ar  
     5     2    17 1   
     6     3     6 ar  
     7     3    37 1   
     8     4     5 ar  
     9     4    38 1   
    10     5     6 ar  
    11     5     9 1   
    12     6     7 1   
    13     7     8 1   
    14     7    11 1   
    15     8     9 2   
    16     8    10 1   
    17    10    20 ar  
    18    10    24 ar  
    19    11    12 1   
    20    11    13 1   
    21    11    39 1   
    22    12    14 2   
    23    12    15 1   
    24    13    25 1   
    25    13    29 1   
    26    13    40 1   
    27    15    16 1   
    28    15    41 1   
    29    16    30 1   
    30    16    34 1   
    31    16    42 1   
    32    17    18 1   
    33    17    19 1   
    34    20    21 ar  
    35    20    43 1   
    36    21    22 ar  
    37    21    44 1   
    38    22    23 ar  
    39    22    35 1   
    40    23    24 ar  
    41    23    45 1   
    42    24    46 1   
    43    25    26 1   
    44    25    47 1   
    45    25    48 1   
    46    26    27 1   
    47    26    49 1   
    48    26    50 1   
    49    27    28 1   
    50    27    51 1   
    51    27    52 1   
    52    28    29 1   
    53    28    53 1   
    54    28    54 1   
    55    29    55 1   
    56    29    56 1   
    57    30    31 1   
    58    30    57 1   
    59    30    58 1   
    60    31    32 1   
    61    31    59 1   
    62    31    60 1   
    63    32    33 1   
    64    32    61 1   
    65    32    62 1   
    66    33    34 1   
    67    33    63 1   
    68    33    64 1   
    69    34    65 1   
    70    34    66 1   
@<TRIPOS>SUBSTRUCTURE
     1 OKH         1 TEMP              0 ****  ****    0 ROOT
