@<TRIPOS>MOLECULE
molecule
   66    70     1     0     0
SMALL
bcc


@<TRIPOS>ATOM
      1 C1           0.0000     0.0000     0.0000 ca         1 OKH      -0.099000
      2 C2           1.4010     0.0000     0.0000 ca         1 OKH      -0.077600
      3 C3           2.1020     0.0000     1.2070 ca         1 OKH      -0.149000
      4 C4          -0.6920     0.0010     1.1730 ca         1 OKH      -0.112000
      5 C5          -0.0040     0.0010     2.3940 ca         1 OKH       0.075400
      6 C6           1.4050     0.0000     2.4010 ca         1 OKH      -0.081200
      7 N7           1.7820    -0.0000     3.7310 na         1 OKH      -0.132300
      8 C8           0.6350    -0.0010     4.4740 cc         1 OKH       0.430400
      9 N9          -0.4080     0.0020     3.6790 nd         1 OKH      -0.592100
     10 C10          0.5780    -0.0010     5.9520 ca         1 OKH      -0.055900
     11 C11          3.1540    -0.0010     4.2470 c3         1 OKH      -0.007000
     12 C12          3.4190     1.2920     4.9730 c          1 OKH       0.640100
     13 C13          4.1360    -0.1430     3.0830 c3         1 OKH      -0.087700
     14 O14          2.7950     2.2900     4.6800 o          1 OKH      -0.573100
     15 N15          4.3470     1.3390     5.9490 ns         1 OKH      -0.590900
     16 C16          4.5290     2.5670     6.7280 c3         1 OKH       0.118700
     17 C17          2.1380    -0.0010    -1.2770 c          1 OKH       0.884200
     18 O18          1.4630    -0.0010    -2.4440 o          1 OKH      -0.835800
     19 O19          3.3530    -0.0020    -1.2780 o          1 OKH      -0.835800
     20 C20         -0.5840     0.4060     6.6080 ca         1 OKH      -0.111500
     21 C21         -0.6310     0.4020     7.9870 ca         1 OKH      -0.125500
     22 C22          0.4720    -0.0020     8.7190 ca         1 OKH       0.019400
     23 C23          1.6290    -0.4060     8.0730 ca         1 OKH      -0.125500
     24 C24          1.6850    -0.4140     6.6950 ca         1 OKH      -0.111500
     25 C25          5.5670     0.0210     3.6010 c3         1 OKH      -0.086900
     26 C26          6.5490    -0.1200     2.4360 c3         1 OKH      -0.081900
     27 C27          6.3930    -1.5030     1.8010 c3         1 OKH      -0.081400
     28 C28          4.9620    -1.6670     1.2840 c3         1 OKH      -0.081900
     29 C29          3.9790    -1.5260     2.4480 c3         1 OKH      -0.086900
     30 C30          5.9520     2.6100     7.2870 c3         1 OKH      -0.093900
     31 C31          6.1430     3.8910     8.1010 c3         1 OKH      -0.076400
     32 C32          5.1400     3.9150     9.2560 c3         1 OKH      -0.083400
     33 C33          3.7160     3.8730     8.6970 c3         1 OKH      -0.076400
     34 C34          3.5260     2.5910     7.8830 c3         1 OKH      -0.093900
     35 Cl35         0.4060    -0.0030    10.4540 cl         1 OKH      -0.132400
     36 H1          -0.5370    -0.0000    -0.9410 ha         1 OKH       0.160000
     37 H3           3.1850     0.0000     1.2090 ha         1 OKH       0.163000
     38 H4          -1.7750     0.0010     1.1620 ha         1 OKH       0.122000
     39 H11          3.2820    -0.8320     4.9300 h1         1 OKH       0.063700
     40 H13          3.9340     0.6180     2.3400 hc         1 OKH       0.110700
     41 HN15         4.8860     0.5250     6.1660 hn         1 OKH       0.309500
     42 H16          4.3670     3.4290     6.0930 h1         1 OKH       0.085700
     43 H20         -1.4480     0.7230     6.0370 ha         1 OKH       0.153500
     44 H21         -1.5320     0.7180     8.4980 ha         1 OKH       0.137500
     45 H23          2.4880    -0.7240     8.6510 ha         1 OKH       0.137500
     46 H24          2.5900    -0.7300     6.1910 ha         1 OKH       0.153500
     47 H25          5.7730    -0.7430     4.3400 hc         1 OKH       0.043950
     48 H25A         5.6780     1.0020     4.0470 hc         1 OKH       0.043950
     49 H26          6.3410     0.6410     1.6950 hc         1 OKH       0.059200
     50 H26A         7.5620    -0.0060     2.8040 hc         1 OKH       0.059200
     51 H27          7.0870    -1.6010     0.9750 hc         1 OKH       0.032200
     52 H27A         6.5970    -2.2650     2.5430 hc         1 OKH       0.032200
     53 H28          4.7560    -0.9030     0.5440 hc         1 OKH       0.059200
     54 H28A         4.8510    -2.6480     0.8370 hc         1 OKH       0.059200
     55 H29          2.9670    -1.6400     2.0810 hc         1 OKH       0.043950
     56 H29A         4.1880    -2.2870     3.1900 hc         1 OKH       0.043950
     57 H30          6.6610     2.5950     6.4680 hc         1 OKH       0.047950
     58 H30A         6.1140     1.7500     7.9260 hc         1 OKH       0.047950
     59 H31          7.1500     3.9190     8.4980 hc         1 OKH       0.042950
     60 H31A         5.9770     4.7510     7.4620 hc         1 OKH       0.042950
     61 H32          5.2740     4.8240     9.8300 hc         1 OKH       0.037200
     62 H32A         5.3030     3.0530     9.8910 hc         1 OKH       0.037200
     63 H33          3.5550     4.7330     8.0580 hc         1 OKH       0.042950
     64 H33A         3.0070     3.8870     9.5160 hc         1 OKH       0.042950
     65 H34          3.6910     1.7320     8.5220 hc         1 OKH       0.047950
     66 H34A         2.5190     2.5640     7.4850 hc         1 OKH       0.047950
@<TRIPOS>BOND
     1     1     2 ar
     2     1     4 ar
     3     2     3 ar
     4     2    17 1
     5     3     6 ar
     6     4     5 ar
     7     5     6 ar
     8     5     9 1
     9     6     7 1
    10     7     8 1
    11     7    11 1
    12     8     9 2
    13     8    10 1
    14    10    20 ar
    15    10    24 ar
    16    11    12 1
    17    11    13 1
    18    12    14 2
    19    12    15 1
    20    13    25 1
    21    13    29 1
    22    15    16 1
    23    16    30 1
    24    16    34 1
    25    17    18 1
    26    17    19 1
    27    20    21 ar
    28    21    22 ar
    29    22    23 ar
    30    22    35 1
    31    23    24 ar
    32    25    26 1
    33    26    27 1
    34    27    28 1
    35    28    29 1
    36    30    31 1
    37    31    32 1
    38    32    33 1
    39    33    34 1
    40     1    36 1
    41     3    37 1
    42     4    38 1
    43    11    39 1
    44    13    40 1
    45    15    41 1
    46    16    42 1
    47    20    43 1
    48    21    44 1
    49    23    45 1
    50    24    46 1
    51    25    47 1
    52    25    48 1
    53    26    49 1
    54    26    50 1
    55    27    51 1
    56    27    52 1
    57    28    53 1
    58    28    54 1
    59    29    55 1
    60    29    56 1
    61    30    57 1
    62    30    58 1
    63    31    59 1
    64    31    60 1
    65    32    61 1
    66    32    62 1
    67    33    63 1
    68    33    64 1
    69    34    65 1
    70    34    66 1
@<TRIPOS>SUBSTRUCTURE
     1 OKH         1 TEMP              0 ****  ****    0 ROOT
