@<TRIPOS>MOLECULE
molecule
   64    68     1     0     0
SMALL
bcc


@<TRIPOS>ATOM
      1 C1           0.0000     0.0000     0.0000 cc         1 OKI       0.477400
      2 N2           1.3690     0.0000     0.0000 na         1 OKI      -0.130300
      3 N3          -0.4430    -0.0010     1.2340 nd         1 OKI      -0.588100
      4 C4           2.0780    -1.2980    -1.9250 c          1 OKI       0.640100
      5 C5           2.2380     0.0020    -1.1800 c3         1 OKI      -0.010000
      6 C6           1.7780     0.0000     1.3190 ca         1 OKI      -0.075200
      7 C7           0.6050    -0.0010     2.0930 ca         1 OKI       0.094400
      8 N8           2.2250    -1.3320    -3.2640 ns         1 OKI      -0.579900
      9 C9          -0.8510     0.0050    -1.2090 ca         1 OKI      -0.089900
     10 O10          1.8130    -2.3160    -1.3180 o          1 OKI      -0.578100
     11 C11          3.6960     0.1600    -0.7390 c3         1 OKI      -0.085700
     12 C12         -2.0800    -0.6550    -1.2040 ca         1 OKI      -0.096500
     13 C13         -0.4290     0.6750    -2.3590 ca         1 OKI      -0.096500
     14 C14         -2.4440     0.0160    -3.4740 ca         1 OKI       0.036400
     15 C15          2.1800    -2.6100    -3.9740 c3         1 OKI       0.117700
     16 C16         -2.8700    -0.6450    -2.3340 ca         1 OKI      -0.124500
     17 C17         -1.2270     0.6770    -3.4850 ca         1 OKI      -0.124500
     18 Cl18        -3.4440     0.0240    -4.8940 cl         1 OKI      -0.107400
     19 C19          3.0170     0.0010     1.9430 ca         1 OKI      -0.149000
     20 C20          0.7020    -0.0030     3.4890 ca         1 OKI      -0.069000
     21 C21          3.8940     1.5450    -0.1210 c3         1 OKI      -0.088900
     22 C22          4.6140     0.0070    -1.9530 c3         1 OKI      -0.088900
     23 C23          2.9560    -2.4930    -5.2870 c3         1 OKI      -0.094400
     24 C24          0.7250    -2.9770    -4.2740 c3         1 OKI      -0.094400
     25 C25          3.0890     0.0010     3.3210 ca         1 OKI      -0.117000
     26 C26          1.9300    -0.0010     4.0860 ca         1 OKI      -0.147000
     27 C27          6.0710     0.1660    -1.5130 c3         1 OKI      -0.077400
     28 C28          5.3510     1.7040     0.3190 c3         1 OKI      -0.077400
     29 C29          0.6770    -4.3140    -5.0160 c3         1 OKI      -0.076400
     30 C30          2.9090    -3.8300    -6.0300 c3         1 OKI      -0.076400
     31 C31          6.2690     1.5510    -0.8950 c3         1 OKI      -0.083400
     32 C32          1.4540    -4.1960    -6.3300 c3         1 OKI      -0.084400
     33 H5           1.9650     0.8260    -1.8280 h1         1 OKI       0.070700
     34 HN8          2.3490    -0.4800    -3.7750 hn         1 OKI       0.310500
     35 H11          3.9400    -0.5990    -0.0060 hc         1 OKI       0.091700
     36 H12         -2.4140    -1.1730    -0.3130 ha         1 OKI       0.148500
     37 H13          0.5220     1.1920    -2.3680 ha         1 OKI       0.148500
     38 H15          2.6260    -3.3850    -3.3620 h1         1 OKI       0.080700
     39 H16         -3.8230    -1.1590    -2.3320 ha         1 OKI       0.146500
     40 H17         -0.9000     1.1950    -4.3790 ha         1 OKI       0.146500
     41 H19          3.9250     0.0030     1.3510 ha         1 OKI       0.149000
     42 H20         -0.1960    -0.0040     4.0950 ha         1 OKI       0.142000
     43 H21          3.6550     2.3040    -0.8560 hc         1 OKI       0.052200
     44 H21A         3.2440     1.6510     0.7390 hc         1 OKI       0.052200
     45 H22          4.4750    -0.9750    -2.3880 hc         1 OKI       0.052200
     46 H22A         4.3740     0.7690    -2.6850 hc         1 OKI       0.052200
     47 H23          3.9870    -2.2360    -5.0740 hc         1 OKI       0.048200
     48 H23A         2.5070    -1.7230    -5.9030 hc         1 OKI       0.048200
     49 H24          0.1770    -3.0620    -3.3430 hc         1 OKI       0.048200
     50 H24A         0.2800    -2.2060    -4.8910 hc         1 OKI       0.048200
     51 H25          4.0560     0.0010     3.8100 ha         1 OKI       0.131000
     52 H26          2.0010    -0.0020     5.1670 ha         1 OKI       0.132000
     53 H27          6.3100    -0.5930    -0.7780 hc         1 OKI       0.046450
     54 H27A         6.7210     0.0600    -2.3730 hc         1 OKI       0.046450
     55 H28          5.5910     0.9420     1.0510 hc         1 OKI       0.046450
     56 H28A         5.4900     2.6860     0.7540 hc         1 OKI       0.046450
     57 H29          1.1260    -5.0840    -4.4000 hc         1 OKI       0.045950
     58 H29A        -0.3540    -4.5700    -5.2290 hc         1 OKI       0.045950
     59 H30          3.3530    -4.6010    -5.4120 hc         1 OKI       0.045950
     60 H30A         3.4570    -3.7450    -6.9600 hc         1 OKI       0.045950
     61 H31          6.0260     2.3110    -1.6280 hc         1 OKI       0.043700
     62 H31A         7.3010     1.6610    -0.5820 hc         1 OKI       0.043700
     63 H32          1.4220    -5.1430    -6.8530 hc         1 OKI       0.043200
     64 H32A         1.0080    -3.4220    -6.9430 hc         1 OKI       0.043200
@<TRIPOS>BOND
     1     1     2 1
     2     1     3 2
     3     1     9 1
     4     2     5 1
     5     2     6 1
     6     3     7 1
     7     4     5 1
     8     4     8 1
     9     4    10 2
    10     5    11 1
    11     6     7 ar
    12     6    19 ar
    13     7    20 ar
    14     8    15 1
    15     9    12 ar
    16     9    13 ar
    17    11    21 1
    18    11    22 1
    19    12    16 ar
    20    13    17 ar
    21    14    16 ar
    22    14    17 ar
    23    14    18 1
    24    15    23 1
    25    15    24 1
    26    19    25 ar
    27    20    26 ar
    28    21    28 1
    29    22    27 1
    30    23    30 1
    31    24    29 1
    32    25    26 ar
    33    27    31 1
    34    28    31 1
    35    29    32 1
    36    30    32 1
    37     5    33 1
    38     8    34 1
    39    11    35 1
    40    12    36 1
    41    13    37 1
    42    15    38 1
    43    16    39 1
    44    17    40 1
    45    19    41 1
    46    20    42 1
    47    21    43 1
    48    21    44 1
    49    22    45 1
    50    22    46 1
    51    23    47 1
    52    23    48 1
    53    24    49 1
    54    24    50 1
    55    25    51 1
    56    26    52 1
    57    27    53 1
    58    27    54 1
    59    28    55 1
    60    28    56 1
    61    29    57 1
    62    29    58 1
    63    30    59 1
    64    30    60 1
    65    31    61 1
    66    31    62 1
    67    32    63 1
    68    32    64 1
@<TRIPOS>SUBSTRUCTURE
     1 OKI         1 TEMP              0 ****  ****    0 ROOT
