@<TRIPOS>MOLECULE
OKI
   64    68     1     0     0
SMALL
bcc


@<TRIPOS>ATOM
      1 C1           0.0000     0.0000     0.0000 cc         1 OKI       0.277400
      2 N2           1.3690     0.0000     0.0000 na         1 OKI       0.348700
      3 N3          -0.4430    -0.0010     1.2340 nd         1 OKI      -0.505100
      4 C4           2.0780    -1.2980    -1.9250 c          1 OKI       0.556100
      5 C5           2.2380     0.0020    -1.1800 c3         1 OKI      -0.138000
      6 C6           1.7780     0.0000     1.3190 ca         1 OKI      -0.241200
      7 C7           0.6050    -0.0010     2.0930 ca         1 OKI       0.063400
      8 N8           2.2250    -1.3320    -3.2640 ns         1 OKI      -0.181900
      9 C9          -0.8510     0.0050    -1.2090 ca         1 OKI      -0.081900
     10 O10          1.8130    -2.3160    -1.3180 o          1 OKI      -0.622100
     11 C11          3.6960     0.1600    -0.7390 c3         1 OKI      -0.071700
     12 C12         -2.0800    -0.6550    -1.2040 ca         1 OKI      -0.084500
     13 C13         -0.4290     0.6750    -2.3590 ca         1 OKI      -0.084500
     14 C14         -2.4440     0.0160    -3.4740 ca         1 OKI      -0.032600
     15 C15          2.1800    -2.6100    -3.9740 c3         1 OKI       0.016700
     16 C16         -2.8700    -0.6450    -2.3340 ca         1 OKI      -0.098000
     17 C17         -1.2270     0.6770    -3.4850 ca         1 OKI      -0.098000
     18 Cl18        -3.4440     0.0240    -4.8940 cl         1 OKI      -0.026400
     19 C19          3.0170     0.0010     1.9430 ca         1 OKI      -0.145000
     20 C20          0.7020    -0.0030     3.4890 ca         1 OKI      -0.034000
     21 C21          3.8940     1.5450    -0.1210 c3         1 OKI      -0.052900
     22 C22          4.6140     0.0070    -1.9530 c3         1 OKI      -0.052900
     23 C23          2.9560    -2.4930    -5.2870 c3         1 OKI      -0.042400
     24 C24          0.7250    -2.9770    -4.2740 c3         1 OKI      -0.042400
     25 C25          3.0890     0.0010     3.3210 ca         1 OKI      -0.085000
     26 C26          1.9300    -0.0010     4.0860 ca         1 OKI      -0.123000
     27 C27          6.0710     0.1660    -1.5130 c3         1 OKI      -0.020400
     28 C28          5.3510     1.7040     0.3190 c3         1 OKI      -0.020400
     29 C29          0.6770    -4.3140    -5.0160 c3         1 OKI      -0.016900
     30 C30          2.9090    -3.8300    -6.0300 c3         1 OKI      -0.016900
     31 C31          6.2690     1.5510    -0.8950 c3         1 OKI      -0.027400
     32 C32          1.4540    -4.1960    -6.3300 c3         1 OKI      -0.028400
     33 H5           1.9650     0.8260    -1.8280 h1         1 OKI       0.056700
     34 HN8          2.3490    -0.4800    -3.7750 hn         1 OKI       0.175500
     35 H11          3.9400    -0.5990    -0.0060 hc         1 OKI       0.077700
     36 H12         -2.4140    -1.1730    -0.3130 ha         1 OKI       0.119500
     37 H13          0.5220     1.1920    -2.3680 ha         1 OKI       0.119500
     38 H15          2.6260    -3.3850    -3.3620 h1         1 OKI       0.060700
     39 H16         -3.8230    -1.1590    -2.3320 ha         1 OKI       0.115500
     40 H17         -0.9000     1.1950    -4.3790 ha         1 OKI       0.115500
     41 H19          3.9250     0.0030     1.3510 ha         1 OKI       0.145000
     42 H20         -0.1960    -0.0040     4.0950 ha         1 OKI       0.109000
     43 H21          3.6550     2.3040    -0.8560 hc         1 OKI       0.029450
     44 H21A         3.2440     1.6510     0.7390 hc         1 OKI       0.029450
     45 H22          4.4750    -0.9750    -2.3880 hc         1 OKI       0.029450
     46 H22A         4.3740     0.7690    -2.6850 hc         1 OKI       0.029450
     47 H23          3.9870    -2.2360    -5.0740 hc         1 OKI       0.021950
     48 H23A         2.5070    -1.7230    -5.9030 hc         1 OKI       0.021950
     49 H24          0.1770    -3.0620    -3.3430 hc         1 OKI       0.021950
     50 H24A         0.2800    -2.2060    -4.8910 hc         1 OKI       0.021950
     51 H25          4.0560     0.0010     3.8100 ha         1 OKI       0.101000
     52 H26          2.0010    -0.0020     5.1670 ha         1 OKI       0.104000
     53 H27          6.3100    -0.5930    -0.7780 hc         1 OKI       0.018450
     54 H27A         6.7210     0.0600    -2.3730 hc         1 OKI       0.018450
     55 H28          5.5910     0.9420     1.0510 hc         1 OKI       0.018450
     56 H28A         5.4900     2.6860     0.7540 hc         1 OKI       0.018450
     57 H29          1.1260    -5.0840    -4.4000 hc         1 OKI       0.017700
     58 H29A        -0.3540    -4.5700    -5.2290 hc         1 OKI       0.017700
     59 H30          3.3530    -4.6010    -5.4120 hc         1 OKI       0.017700
     60 H30A         3.4570    -3.7450    -6.9600 hc         1 OKI       0.017700
     61 H31          6.0260     2.3110    -1.6280 hc         1 OKI       0.015700
     62 H31A         7.3010     1.6610    -0.5820 hc         1 OKI       0.015700
     63 H32          1.4220    -5.1430    -6.8530 hc         1 OKI       0.015200
     64 H32A         1.0080    -3.4220    -6.9430 hc         1 OKI       0.015200
@<TRIPOS>BOND
     1     1     2 1   
     2     1     3 2   
     3     1     9 1   
     4     2     5 1   
     5     2     6 1   
     6     3     7 1   
     7     4     5 1   
     8     4     8 1   
     9     4    10 2   
    10     5    11 1   
    11     5    33 1   
    12     6     7 ar  
    13     6    19 ar  
    14     7    20 ar  
    15     8    15 1   
    16     8    34 1   
    17     9    12 ar  
    18     9    13 ar  
    19    11    21 1   
    20    11    22 1   
    21    11    35 1   
    22    12    16 ar  
    23    12    36 1   
    24    13    17 ar  
    25    13    37 1   
    26    14    16 ar  
    27    14    17 ar  
    28    14    18 1   
    29    15    23 1   
    30    15    24 1   
    31    15    38 1   
    32    16    39 1   
    33    17    40 1   
    34    19    25 ar  
    35    19    41 1   
    36    20    26 ar  
    37    20    42 1   
    38    21    28 1   
    39    21    43 1   
    40    21    44 1   
    41    22    27 1   
    42    22    45 1   
    43    22    46 1   
    44    23    30 1   
    45    23    47 1   
    46    23    48 1   
    47    24    29 1   
    48    24    49 1   
    49    24    50 1   
    50    25    26 ar  
    51    25    51 1   
    52    26    52 1   
    53    27    31 1   
    54    27    53 1   
    55    27    54 1   
    56    28    31 1   
    57    28    55 1   
    58    28    56 1   
    59    29    32 1   
    60    29    57 1   
    61    29    58 1   
    62    30    32 1   
    63    30    59 1   
    64    30    60 1   
    65    31    61 1   
    66    31    62 1   
    67    32    63 1   
    68    32    64 1   
@<TRIPOS>SUBSTRUCTURE
     1 OKI         1 TEMP              0 ****  ****    0 ROOT
