@<TRIPOS>MOLECULE
molecule
   28    28     1     0     0
SMALL
bcc


@<TRIPOS>ATOM
      1 C1           1.5300     0.0000     0.0000 c3         1 OKJ       0.014100
      2 O1           2.0060     0.0000     1.3470 oh         1 OKJ      -0.553800
      3 O2           2.7260     2.0250    -0.1240 o          1 OKJ      -0.401100
      4 C2           2.0320     1.2300    -0.7100 c          1 OKJ       0.493900
      5 C3           0.0000     0.0000     0.0000 c3         1 OKJ       0.112500
      6 C4          -0.5100    -1.2490     0.7200 c3         1 OKJ      -0.045100
      7 C5          -2.0120    -1.1880     0.8290 ca         1 OKJ      -0.170300
      8 C6          -2.6020    -0.5890     1.9260 ca         1 OKJ      -0.118000
      9 C7          -3.9780    -0.5320     2.0280 ca         1 OKJ      -0.137500
     10 C8          -4.7690    -1.0770     1.0270 ca         1 OKJ       0.144100
     11 O3          -6.1240    -1.0230     1.1240 oh         1 OKJ      -0.510100
     12 C9          -4.1750    -1.6780    -0.0740 ca         1 OKJ      -0.137500
     13 C10         -2.7980    -1.7280    -0.1730 ca         1 OKJ      -0.118000
     14 N1          -0.4890     0.0000    -1.3850 nz         1 OKJ      -0.811600
     15 H3          -0.3610     0.8840     0.5110 hx         1 OKJ       0.137700
     16 H4          -0.2240    -2.1310     0.1610 hc         1 OKJ       0.095200
     17 H5          -0.0780    -1.2950     1.7130 hc         1 OKJ       0.095200
     18 H6          -1.9840    -0.1630     2.7080 ha         1 OKJ       0.131500
     19 H7          -4.4390    -0.0630     2.8890 ha         1 OKJ       0.164000
     20 H8          -6.4380    -1.7890     1.5750 ho         1 OKJ       0.442000
     21 H9          -4.7910    -2.1020    -0.8580 ha         1 OKJ       0.164000
     22 H10         -2.3340    -2.1960    -1.0320 ha         1 OKJ       0.131500
     23 H11          0.1090     0.5690    -1.9500 hn         1 OKJ       0.457800
     24 H41          2.8560    -0.4070     1.3800 ho         1 OKJ       0.446000
     25 H43          1.8910    -0.8850    -0.5110 h1         1 OKJ       0.066700
     26 H12         -1.4200     0.3680    -1.4100 hn         1 OKJ       0.457800
     27 H42          1.8040     1.3810    -1.7590 h4         1 OKJ      -0.011800
     28 H13         -0.4880    -0.9360    -1.7390 hn         1 OKJ       0.457800
@<TRIPOS>BOND
     1     1     5 1
     2     1    25 1
     3     2     1 1
     4     2    24 1
     5     3     4 2
     6     4     1 1
     7     5    14 1
     8     5    15 1
     9     6     5 1
    10     6     7 1
    11     6    16 1
    12     6    17 1
    13     7    13 ar
    14     8     7 ar
    15     8     9 ar
    16     8    18 1
    17     9    10 ar
    18     9    19 1
    19    10    12 ar
    20    10    11 1
    21    11    20 1
    22    12    21 1
    23    13    12 ar
    24    13    22 1
    25    14    23 1
    26    14    26 1
    27     4    27 1
    28    28    14 1
@<TRIPOS>SUBSTRUCTURE
     1 OKJ         1 TEMP              0 ****  ****    0 ROOT
