@<TRIPOS>MOLECULE
OKJ
   28    28     1     0     0
SMALL
bcc


@<TRIPOS>ATOM
      1 C1           1.5300     0.0000     0.0000 c3         1 OKJ       0.064100
      2 O1           2.0060     0.0000     1.3470 oh         1 OKJ      -0.533800
      3 O2           2.7260     2.0250    -0.1240 o          1 OKJ      -0.424100
      4 C2           2.0320     1.2300    -0.7100 c          1 OKJ       0.558900
      5 C3           0.0000     0.0000     0.0000 c3         1 OKJ      -0.072500
      6 C4          -0.5100    -1.2490     0.7200 c3         1 OKJ       0.038900
      7 C5          -2.0120    -1.1880     0.8290 ca         1 OKJ      -0.202300
      8 C6          -2.6020    -0.5890     1.9260 ca         1 OKJ      -0.079500
      9 C7          -3.9780    -0.5320     2.0280 ca         1 OKJ      -0.118000
     10 C8          -4.7690    -1.0770     1.0270 ca         1 OKJ       0.169100
     11 O3          -6.1240    -1.0230     1.1240 oh         1 OKJ      -0.491100
     12 C9          -4.1750    -1.6780    -0.0740 ca         1 OKJ      -0.118000
     13 C10         -2.7980    -1.7280    -0.1730 ca         1 OKJ      -0.079500
     14 N1          -0.4890     0.0000    -1.3850 nz         1 OKJ       0.051400
     15 H3          -0.3610     0.8840     0.5110 hx         1 OKJ       0.109700
     16 H4          -0.2240    -2.1310     0.1610 hc         1 OKJ       0.059200
     17 H5          -0.0780    -1.2950     1.7130 hc         1 OKJ       0.059200
     18 H6          -1.9840    -0.1630     2.7080 ha         1 OKJ       0.105000
     19 H7          -4.4390    -0.0630     2.8890 ha         1 OKJ       0.132500
     20 H8          -6.4380    -1.7890     1.5750 ho         1 OKJ       0.424000
     21 H9          -4.7910    -2.1020    -0.8580 ha         1 OKJ       0.132500
     22 H10         -2.3340    -2.1960    -1.0320 ha         1 OKJ       0.105000
     23 H11          0.1090     0.5690    -1.9500 hn         1 OKJ       0.231800
     24 H41          2.8560    -0.4070     1.3800 ho         1 OKJ       0.428000
     25 H43          1.8910    -0.8850    -0.5110 h1         1 OKJ       0.029700
     26 H12         -1.4200     0.3680    -1.4100 hn         1 OKJ       0.231800
     27 H42          1.8040     1.3810    -1.7590 h4         1 OKJ      -0.042800
     28 H13         -0.4880    -0.9360    -1.7390 hn         1 OKJ       0.231800
@<TRIPOS>BOND
     1     1     2 1   
     2     1     4 1   
     3     1     5 1   
     4     1    25 1   
     5     2    24 1   
     6     3     4 2   
     7     4    27 1   
     8     5     6 1   
     9     5    14 1   
    10     5    15 1   
    11     6     7 1   
    12     6    16 1   
    13     6    17 1   
    14     7     8 ar  
    15     7    13 ar  
    16     8     9 ar  
    17     8    18 1   
    18     9    10 ar  
    19     9    19 1   
    20    10    11 1   
    21    10    12 ar  
    22    11    20 1   
    23    12    13 ar  
    24    12    21 1   
    25    13    22 1   
    26    14    23 1   
    27    14    26 1   
    28    14    28 1   
@<TRIPOS>SUBSTRUCTURE
     1 OKJ         1 TEMP              0 ****  ****    0 ROOT
