@<TRIPOS>MOLECULE
OKO
   64    68     1     0     0
SMALL
bcc


@<TRIPOS>ATOM
      1 O2          0.8830   -0.8420   -1.1840 o         1 OKO     -0.650300
      2 S           2.1080   -0.1640   -1.3290 s6        1 OKO      1.470900
      3 O1          3.0230   -0.2640   -0.2630 o         1 OKO     -0.650300
      4 C6          2.8590   -0.7390   -2.7380 c3        1 OKO     -0.373300
      5 N1          1.8780    1.4180   -1.6370 nh        1 OKO     -0.768500
      6 C5          0.9510    2.0020   -2.5080 ca        1 OKO      0.033300
      7 C1          1.2150    3.2770   -3.1290 ca        1 OKO      0.600600
      8 O           2.4280    3.8550   -2.8020 os        1 OKO     -0.460100
      9 C           2.6990    5.1600   -3.3160 c3        1 OKO      0.129700
     10 C4         -0.2840    1.4010   -2.8100 ca        1 OKO     -0.116000
     11 C3         -1.1750    2.0300   -3.6920 cp        1 OKO     -0.158300
     12 C2         -0.8060    3.2740   -4.2410 ca        1 OKO      0.425200
     13 N           0.3540    3.8940   -3.9690 nb        1 OKO     -0.707000
     14 C7         -2.4570    1.4150   -4.0240 cp        1 OKO     -0.013000
     15 C23        -3.1730    0.7300   -3.0420 ca        1 OKO     -0.107000
     16 C22        -4.3920    0.1520   -3.4120 ca        1 OKO     -0.060200
     17 N5         -5.3650   -0.5510   -2.6800 na        1 OKO     -0.018100
     18 N4         -6.3790   -0.9420   -3.4660 nc        1 OKO     -0.507100
     19 C21        -6.1760   -0.4600   -4.7070 cd        1 OKO      0.364800
     20 C20        -4.9090    0.2610   -4.7590 ca        1 OKO     -0.177900
     21 C9         -4.1720    0.9610   -5.7190 ca        1 OKO     -0.064500
     22 C8         -2.9530    1.5270   -5.3430 ca        1 OKO     -0.118000
     23 C10        -4.6590    1.1000   -7.0790 cc        1 OKO      0.541900
     24 O4         -3.8450    1.8260   -7.9770 os        1 OKO     -0.358800
     25 C12        -4.5390    1.8120   -9.1880 cc        1 OKO      0.156700
     26 C11        -5.7170    1.0970   -8.9920 cd        1 OKO      0.232900
     27 N2         -5.7770    0.6560   -7.6680 nd        1 OKO     -0.659000
     28 C13        -3.9100    2.4520  -10.3660 c3        1 OKO      0.146500
     29 N3         -3.5840    3.8590  -10.1750 n3        1 OKO     -0.721600
     30 C19        -2.8280    4.3890  -11.3030 c3        1 OKO      0.133800
     31 C17        -2.5170    5.8880  -11.1420 c3        1 OKO      0.141600
     32 C18        -1.9160    6.4460  -12.4170 c3        1 OKO     -0.094100
     33 O3         -3.7120    6.6340  -10.8950 os        1 OKO     -0.418600
     34 C15        -4.3990    6.1680   -9.7290 c3        1 OKO      0.141600
     35 C16        -5.6590    7.0020   -9.6100 c3        1 OKO     -0.094100
     36 C14        -4.7490    4.6750   -9.8620 c3        1 OKO      0.133800
     37 H61C        2.2590   -0.5830   -3.6670 h1        1 OKO      0.119367
     38 H62C        3.8610   -0.2820   -2.9250 h1        1 OKO      0.119367
     39 H63C        3.0300   -1.8440   -2.6650 h1        1 OKO      0.119367
     40 H1          2.4890    2.0940   -1.2240 hn        1 OKO      0.472800
     41 H4         -0.5620    0.4300   -2.3610 ha        1 OKO      0.181000
     42 HC1         2.7360    5.1420   -4.4320 h1        1 OKO      0.053033
     43 HC2         1.9350    5.8910   -2.9590 h1        1 OKO      0.053033
     44 HC3         3.7070    5.3900   -2.8860 h1        1 OKO      0.053033
     45 H2         -1.4780    3.8160   -4.9330 h4        1 OKO      0.037100
     46 H23        -2.7940    0.6500   -2.0130 ha        1 OKO      0.152000
     47 H8         -2.3580    2.0680   -6.0960 ha        1 OKO      0.155000
     48 H5         -5.2230   -0.9890   -1.8000 hn        1 OKO      0.323700
     49 H21        -6.8850   -0.6080   -5.5250 h4        1 OKO      0.076800
     50 H11        -6.5150    0.8670   -9.6980 h4        1 OKO      0.054100
     51 H131       -2.9420    1.9100  -10.5830 h1        1 OKO      0.056200
     52 H132       -4.6090    2.2890  -11.2420 h1        1 OKO      0.056200
     53 H191       -1.8540    3.8290  -11.3610 h1        1 OKO      0.043700
     54 H192       -3.3760    4.2420  -12.2800 h1        1 OKO      0.043700
     55 H141       -5.5570    4.5670  -10.6440 h1        1 OKO      0.043700
     56 H142       -5.1620    4.3140   -8.8790 h1        1 OKO      0.043700
     57 H17        -1.8120    6.0370  -10.2750 h1        1 OKO      0.049700
     58 H181       -2.6350    6.3470  -13.2650 hc        1 OKO      0.047533
     59 H182       -1.6790    7.5290  -12.2810 hc        1 OKO      0.047533
     60 H183       -0.9800    5.8910  -12.6610 hc        1 OKO      0.047533
     61 H15        -3.7350    6.3240   -8.8320 h1        1 OKO      0.049700
     62 H161       -6.2910    6.8910  -10.5230 hc        1 OKO      0.047533
     63 H162       -6.2400    6.6690   -8.7170 hc        1 OKO      0.047533
     64 H163       -5.3910    8.0790   -9.4950 hc        1 OKO      0.047533
@<TRIPOS>BOND
     1    1    2 2   
     2    2    3 2   
     3    2    4 1   
     4    2    5 1   
     5    4   37 1   
     6    4   38 1   
     7    4   39 1   
     8    5    6 1   
     9    5   40 1   
    10    6    7 ar  
    11    6   10 ar  
    12    7    8 1   
    13    7   13 ar  
    14    8    9 1   
    15    9   42 1   
    16    9   43 1   
    17    9   44 1   
    18   10   11 ar  
    19   10   41 1   
    20   11   12 ar  
    21   11   14 1   
    22   12   13 ar  
    23   12   45 1   
    24   14   15 ar  
    25   14   22 ar  
    26   15   16 ar  
    27   15   46 1   
    28   16   17 1   
    29   16   20 ar  
    30   17   18 1   
    31   17   48 1   
    32   18   19 2   
    33   19   20 1   
    34   19   49 1   
    35   20   21 ar  
    36   21   22 ar  
    37   21   23 1   
    38   22   47 1   
    39   23   24 1   
    40   23   27 2   
    41   24   25 1   
    42   25   26 2   
    43   25   28 1   
    44   26   27 1   
    45   26   50 1   
    46   28   29 1   
    47   28   51 1   
    48   28   52 1   
    49   29   30 1   
    50   29   36 1   
    51   30   31 1   
    52   30   53 1   
    53   30   54 1   
    54   31   32 1   
    55   31   33 1   
    56   31   57 1   
    57   32   58 1   
    58   32   59 1   
    59   32   60 1   
    60   33   34 1   
    61   34   35 1   
    62   34   36 1   
    63   34   61 1   
    64   35   62 1   
    65   35   63 1   
    66   35   64 1   
    67   36   55 1   
    68   36   56 1   
@<TRIPOS>SUBSTRUCTURE
     1 OKO         1 TEMP              0 ****  ****    0 ROOT
