@<TRIPOS>MOLECULE
OL1
   50    52     1     0     0
SMALL
bcc


@<TRIPOS>ATOM
      1 O14         1.1730    0.2880   -0.1020 oh        1 OL1     -0.599800
      2 C13         2.5000   -0.1820   -0.0340 c3        1 OL1      0.343300
      3 C15         2.9250   -0.3410    1.4120 cc        1 OL1      0.422700
      4 O19         2.8520    0.8410    2.1710 os        1 OL1     -0.369800
      5 C18         3.2820    0.4760    3.4540 cc        1 OL1      0.117400
      6 C20         3.3300    1.4740    4.5060 ca        1 OL1      0.371300
      7 C25         3.7750    1.0590    5.7840 ca        1 OL1     -0.225300
      8 C24         3.8330    1.9970    6.8160 ca        1 OL1     -0.091000
      9 C23         3.4510    3.3120    6.5580 ca        1 OL1     -0.236300
     10 C22         3.0210    3.6370    5.2560 ca        1 OL1      0.400200
     11 N21         2.9550    2.7570    4.2450 nb        1 OL1     -0.643000
     12 C17         3.5910   -0.8850    3.4140 cd        1 OL1      0.248900
     13 N16         3.3600   -1.3780    2.1250 nd        1 OL1     -0.637000
     14 C12         2.6080   -1.5050   -0.7990 c3        1 OL1     -0.044400
     15 C11         2.1830   -1.3450   -2.2420 c3        1 OL1     -0.079400
     16 C10         2.2950   -2.6590   -2.9850 c3        1 OL1     -0.078400
     17 C9          1.8700   -2.5060   -4.4300 c3        1 OL1     -0.079400
     18 C8          1.9810   -3.8190   -5.1750 c3        1 OL1     -0.076400
     19 C7          1.5560   -3.6600   -6.6230 c3        1 OL1     -0.038100
     20 C3          1.6260   -4.9500   -7.3630 ca        1 OL1     -0.076300
     21 C2          0.6730   -5.9490   -7.1280 ca        1 OL1     -0.128000
     22 C4          2.6350   -5.1770   -8.3060 ca        1 OL1     -0.128000
     23 C5          2.6900   -6.3840   -9.0010 ca        1 OL1     -0.128500
     24 C6          1.7390   -7.3740   -8.7620 ca        1 OL1     -0.134000
     25 C1          0.7300   -7.1540   -7.8240 ca        1 OL1     -0.128500
     26 OXT         3.2950    0.7910   -0.6710 oh        1 OL1     -0.599800
     27 HXT         3.2650    1.6050   -0.1500 ho        1 OL1      0.418000
     28 H14         1.1030    1.0930    0.4300 ho        1 OL1      0.418000
     29 H121        3.6720   -1.8500   -0.7420 hc        1 OL1      0.069700
     30 H122        1.9570   -2.2560   -0.2810 hc        1 OL1      0.069700
     31 H17         3.9570   -1.5380    4.2070 h4        1 OL1      0.056100
     32 H25         4.0690    0.0140    5.9550 ha        1 OL1      0.148000
     33 H24         4.1750    1.6970    7.8170 ha        1 OL1      0.145000
     34 H23         3.4810    4.0800    7.3420 ha        1 OL1      0.149000
     35 H22         2.7080    4.6670    5.0050 h4        1 OL1      0.029100
     36 H111        1.1250   -0.9720   -2.2780 hc        1 OL1      0.058700
     37 H112        2.8260   -0.5690   -2.7350 hc        1 OL1      0.058700
     38 H101        3.3530   -3.0290   -2.9420 hc        1 OL1      0.040200
     39 H102        1.6540   -3.4320   -2.4850 hc        1 OL1      0.040200
     40 H91C        0.8120   -2.1350   -4.4730 hc        1 OL1      0.041200
     41 H92C        2.5110   -1.7330   -4.9300 hc        1 OL1      0.041200
     42 H81C        1.3370   -4.5920   -4.6790 hc        1 OL1      0.044200
     43 H82C        3.0380   -4.1900   -5.1320 hc        1 OL1      0.044200
     44 H71C        0.5030   -3.2690   -6.6600 hc        1 OL1      0.047700
     45 H72C        2.2100   -2.8950   -7.1200 hc        1 OL1      0.047700
     46 H2         -0.1230   -5.7760   -6.3890 ha        1 OL1      0.131000
     47 H4          3.3890   -4.3980   -8.4980 ha        1 OL1      0.131000
     48 H1         -0.0230   -7.9330   -7.6340 ha        1 OL1      0.129000
     49 H5          3.4870   -6.5530   -9.7400 ha        1 OL1      0.129000
     50 H6          1.7830   -8.3260   -9.3110 ha        1 OL1      0.129000
@<TRIPOS>BOND
     1    1    2 1
     2    1   28 1
     3    2    3 1
     4    2   14 1
     5    2   26 1
     6    3    4 1
     7    3   13 2
     8    4    5 1
     9    5    6 1
    10    5   12 2
    11    6    7 ar
    12    6   11 ar
    13    7    8 ar
    14    7   32 1
    15    8    9 ar
    16    8   33 1
    17    9   10 ar
    18    9   34 1
    19   10   11 ar
    20   10   35 1
    21   12   13 1
    22   12   31 1
    23   14   15 1
    24   14   29 1
    25   14   30 1
    26   15   16 1
    27   15   36 1
    28   15   37 1
    29   16   17 1
    30   16   38 1
    31   16   39 1
    32   17   18 1
    33   17   40 1
    34   17   41 1
    35   18   19 1
    36   18   42 1
    37   18   43 1
    38   19   20 1
    39   19   44 1
    40   19   45 1
    41   20   21 ar
    42   20   22 ar
    43   21   25 ar
    44   21   46 1
    45   22   23 ar
    46   22   47 1
    47   23   24 ar
    48   23   49 1
    49   24   25 ar
    50   24   50 1
    51   25   48 1
    52   26   27 1
@<TRIPOS>SUBSTRUCTURE
     1 OL1         1 TEMP              0 ****  ****    0 ROOT
