@<TRIPOS>MOLECULE
OL2
   53    55     1     0     0
SMALL
bcc


@<TRIPOS>ATOM
      1 C01          0.0000     0.0000     0.0000 c3         1 OL2       0.002900
      2 C02          1.5300     0.0000     0.0000 c3         1 OL2       0.182400
      3 O03          2.0070     0.0000     1.3480 os         1 OL2      -0.231900
      4 C04          3.3510     0.0010     1.5250 ca         1 OL2       0.159100
      5 C05          4.1970     0.0010     0.4300 ca         1 OL2      -0.212000
      6 C06          5.5780     0.0020     0.6190 cp         1 OL2      -0.160500
      7 C07          6.4850     0.0020    -0.5520 cp         1 OL2       0.358500
      8 N08          6.2420     0.8010    -1.5810 nb         1 OL2      -0.532000
      9 C09          7.0590     0.7990    -2.6300 cp         1 OL2       0.296500
     10 C10          6.7880     1.6920    -3.7820 cp         1 OL2      -0.055500
     11 C11          7.5820     1.6170    -4.9250 ca         1 OL2      -0.227500
     12 C12          7.3280     2.4510    -6.0000 ca         1 OL2       0.157600
     13 O13          8.1020     2.3780    -7.1150 os         1 OL2      -0.298400
     14 C14          9.1590     1.4160    -7.1090 c3         1 OL2       0.237700
     15 C15          6.2810     3.3650    -5.9390 ca         1 OL2       0.037100
     16 O16          6.0330     4.1850    -6.9960 os         1 OL2      -0.311900
     17 C17          5.1250     3.7050    -7.9900 c3         1 OL2       0.250700
     18 C18          5.4880     3.4410    -4.7990 ca         1 OL2       0.157600
     19 O19          4.4650     4.3360    -4.7420 os         1 OL2      -0.298400
     20 C20          3.6910     4.3600    -3.5400 c3         1 OL2       0.237700
     21 C21          5.7350     2.6050    -3.7250 ca         1 OL2      -0.227500
     22 C22          8.1710    -0.0430    -2.6480 ca         1 OL2       0.276900
     23 N23          8.4160    -0.8410    -1.6250 nb         1 OL2      -0.580000
     24 C24          7.6090    -0.8400    -0.5710 ca         1 OL2       0.385900
     25 N25          7.8720    -1.6740     0.5050 nv         1 OL2      -0.630500
     26 C26          6.1080     0.0020     1.9130 ca         1 OL2      -0.154000
     27 C27          5.2790     0.0020     2.9970 ca         1 OL2      -0.044000
     28 C28          3.8910     0.0070     2.8200 ca         1 OL2      -0.115600
     29 C29          2.9980     0.0130     3.9920 c          1 OL2       0.971200
     30 O30          1.7930     0.0130     3.8370 o          1 OL2      -0.876300
     31 O31          3.5190     0.0190     5.2350 o          1 OL2      -0.876300
     32 H011        -0.3610    -0.9720     0.3130 hc         1 OL2       0.005700
     33 H012        -0.3610     0.2150    -0.9990 hc         1 OL2       0.005700
     34 H013        -0.3610     0.7570     0.6850 hc         1 OL2       0.005700
     35 H021         1.8910     0.8850    -0.5110 h1         1 OL2      -0.013300
     36 H022         1.8910    -0.8840    -0.5110 h1         1 OL2      -0.013300
     37 H05          3.7880    -0.0740    -0.5710 ha         1 OL2       0.114000
     38 H26          7.1820     0.0000     2.0550 ha         1 OL2       0.095000
     39 H22          8.8380    -0.0390    -3.5020 h4         1 OL2      -0.015900
     40 H11          8.3680     0.8750    -4.9900 ha         1 OL2       0.142500
     41 H21          5.1170     2.6640    -2.8370 ha         1 OL2       0.142500
     42 H141         8.7440     0.4240    -6.9800 h1         1 OL2      -0.000800
     43 H142         9.6970     1.4640    -8.0480 h1         1 OL2      -0.000800
     44 H143         9.8390     1.6320    -6.2930 h1         1 OL2      -0.000800
     45 H171         4.1960     4.2570    -7.9280 h1         1 OL2      -0.012300
     46 H172         5.5610     3.8410    -8.9730 h1         1 OL2      -0.012300
     47 H173         4.9310     2.6520    -7.8240 h1         1 OL2      -0.012300
     48 H201         2.9270     5.1250    -3.6190 h1         1 OL2      -0.000800
     49 H202         4.3370     4.5810    -2.6990 h1         1 OL2      -0.000800
     50 H203         3.2220     3.3950    -3.3930 h1         1 OL2      -0.000800
     51 H251         8.6130    -1.4520     1.1400 hn         1 OL2       0.279300
     52 H252         7.3600    -2.5270     0.6140 hn         1 OL2       0.279300
     53 H27          5.6960     0.0040     3.9970 ha         1 OL2       0.133000
@<TRIPOS>BOND
     1     1     2 1   
     2     1    32 1   
     3     1    33 1   
     4     1    34 1   
     5     2     3 1   
     6     2    35 1   
     7     2    36 1   
     8     3     4 1   
     9     4     5 ar  
    10     4    28 ar  
    11     5     6 ar  
    12     5    37 1   
    13     6     7 1   
    14     6    26 ar  
    15     7     8 ar  
    16     7    24 ar  
    17     8     9 ar  
    18     9    10 1   
    19     9    22 ar  
    20    10    11 ar  
    21    10    21 ar  
    22    11    12 ar  
    23    11    40 1   
    24    12    13 1   
    25    12    15 ar  
    26    13    14 1   
    27    14    42 1   
    28    14    43 1   
    29    14    44 1   
    30    15    16 1   
    31    15    18 ar  
    32    16    17 1   
    33    17    45 1   
    34    17    46 1   
    35    17    47 1   
    36    18    19 1   
    37    18    21 ar  
    38    19    20 1   
    39    20    48 1   
    40    20    49 1   
    41    20    50 1   
    42    21    41 1   
    43    22    23 ar  
    44    22    39 1   
    45    23    24 ar  
    46    24    25 1   
    47    25    51 1   
    48    25    52 1   
    49    26    27 ar  
    50    26    38 1   
    51    27    28 ar  
    52    27    53 1   
    53    28    29 1   
    54    29    30 1   
    55    29    31 1   
@<TRIPOS>SUBSTRUCTURE
     1 OL2         1 TEMP              0 ****  ****    0 ROOT
