@<TRIPOS>MOLECULE
molecule
   53    55     1     0     0
SMALL
bcc


@<TRIPOS>ATOM
      1 C01          0.0000     0.0000     0.0000 c3         1 OL2      -0.089100
      2 C02          1.5300     0.0000     0.0000 c3         1 OL2       0.129400
      3 O03          2.0070     0.0000     1.3480 os         1 OL2      -0.262900
      4 C04          3.3510     0.0010     1.5250 ca         1 OL2       0.145100
      5 C05          4.1970     0.0010     0.4300 ca         1 OL2      -0.213000
      6 C06          5.5780     0.0020     0.6190 cp         1 OL2      -0.153500
      7 C07          6.4850     0.0020    -0.5520 cp         1 OL2       0.391500
      8 N08          6.2420     0.8010    -1.5810 nb         1 OL2      -0.647000
      9 C09          7.0590     0.7990    -2.6300 cp         1 OL2       0.334500
     10 C10          6.7880     1.6920    -3.7820 cp         1 OL2      -0.061500
     11 C11          7.5820     1.6170    -4.9250 ca         1 OL2      -0.229000
     12 C12          7.3280     2.4510    -6.0000 ca         1 OL2       0.149600
     13 O13          8.1020     2.3780    -7.1150 os         1 OL2      -0.318400
     14 C14          9.1590     1.4160    -7.1090 c3         1 OL2       0.124700
     15 C15          6.2810     3.3650    -5.9390 ca         1 OL2       0.045100
     16 O16          6.0330     4.1850    -6.9960 os         1 OL2      -0.326900
     17 C17          5.1250     3.7050    -7.9900 c3         1 OL2       0.135700
     18 C18          5.4880     3.4410    -4.7990 ca         1 OL2       0.149600
     19 O19          4.4650     4.3360    -4.7420 os         1 OL2      -0.318400
     20 C20          3.6910     4.3600    -3.5400 c3         1 OL2       0.124700
     21 C21          5.7350     2.6050    -3.7250 ca         1 OL2      -0.229000
     22 C22          8.1710    -0.0430    -2.6480 ca         1 OL2       0.299900
     23 N23          8.4160    -0.8410    -1.6250 nb         1 OL2      -0.691000
     24 C24          7.6090    -0.8400    -0.5710 ca         1 OL2       0.563900
     25 N25          7.8720    -1.6740     0.5050 nv         1 OL2      -1.063500
     26 C26          6.1080     0.0020     1.9130 ca         1 OL2      -0.156000
     27 C27          5.2790     0.0020     2.9970 ca         1 OL2      -0.078000
     28 C28          3.8910     0.0070     2.8200 ca         1 OL2      -0.105600
     29 C29          2.9980     0.0130     3.9920 c          1 OL2       0.880200
     30 O30          1.7930     0.0130     3.8370 o          1 OL2      -0.826800
     31 O31          3.5190     0.0190     5.2350 o          1 OL2      -0.826800
     32 H011        -0.3610    -0.9720     0.3130 hc         1 OL2       0.041033
     33 H012        -0.3610     0.2150    -0.9990 hc         1 OL2       0.041033
     34 H013        -0.3610     0.7570     0.6850 hc         1 OL2       0.041033
     35 H021         1.8910     0.8850    -0.5110 h1         1 OL2       0.018700
     36 H022         1.8910    -0.8840    -0.5110 h1         1 OL2       0.018700
     37 H05          3.7880    -0.0740    -0.5710 ha         1 OL2       0.125000
     38 H26          7.1820     0.0000     2.0550 ha         1 OL2       0.113000
     39 H22          8.8380    -0.0390    -3.5020 h4         1 OL2       0.018100
     40 H11          8.3680     0.8750    -4.9900 ha         1 OL2       0.155500
     41 H21          5.1170     2.6640    -2.8370 ha         1 OL2       0.155500
     42 H141         8.7440     0.4240    -6.9800 h1         1 OL2       0.043700
     43 H142         9.6970     1.4640    -8.0480 h1         1 OL2       0.043700
     44 H143         9.8390     1.6320    -6.2930 h1         1 OL2       0.043700
     45 H171         4.1960     4.2570    -7.9280 h1         1 OL2       0.030700
     46 H172         5.5610     3.8410    -8.9730 h1         1 OL2       0.030700
     47 H173         4.9310     2.6520    -7.8240 h1         1 OL2       0.030700
     48 H201         2.9270     5.1250    -3.6190 h1         1 OL2       0.043700
     49 H202         4.3370     4.5810    -2.6990 h1         1 OL2       0.043700
     50 H203         3.2220     3.3950    -3.3930 h1         1 OL2       0.043700
     51 H251         8.6130    -1.4520     1.1400 hn         1 OL2       0.439800
     52 H252         7.3600    -2.5270     0.6140 hn         1 OL2       0.439800
     53 H27          5.6960     0.0040     3.9970 ha         1 OL2       0.163000
@<TRIPOS>BOND
     1     1     2 1
     2     2     3 1
     3     3     4 1
     4     4     5 ar
     5     4    28 ar
     6     5     6 ar
     7     6     7 1
     8     6    26 ar
     9     7     8 ar
    10     7    24 ar
    11     8     9 ar
    12     9    10 1
    13     9    22 ar
    14    10    11 ar
    15    10    21 ar
    16    11    12 ar
    17    12    13 1
    18    12    15 ar
    19    13    14 1
    20    15    16 1
    21    15    18 ar
    22    16    17 1
    23    18    19 1
    24    18    21 ar
    25    19    20 1
    26    22    23 ar
    27    23    24 ar
    28    24    25 1
    29    26    27 ar
    30    27    28 ar
    31    28    29 1
    32    29    30 1
    33    29    31 1
    34     1    32 1
    35     1    33 1
    36     1    34 1
    37     2    35 1
    38     2    36 1
    39     5    37 1
    40    26    38 1
    41    22    39 1
    42    11    40 1
    43    21    41 1
    44    14    42 1
    45    14    43 1
    46    14    44 1
    47    17    45 1
    48    17    46 1
    49    17    47 1
    50    20    48 1
    51    20    49 1
    52    20    50 1
    53    25    51 1
    54    25    52 1
    55    27    53 1
@<TRIPOS>SUBSTRUCTURE
     1 OL2         1 TEMP              0 ****  ****    0 ROOT
