@<TRIPOS>MOLECULE
OLA
   53    52     1     0     0
SMALL
bcc


@<TRIPOS>ATOM
      1 C1          0.7170    0.5430    0.4180 c         1 OLA      0.907600
      2 O1          1.9130    0.1300    0.4620 o         1 OLA     -0.853300
      3 O2          0.1730    1.2230    1.3350 o         1 OLA     -0.853300
      4 C2         -0.1400    0.1820   -0.8090 c3        1 OLA     -0.194400
      5 C3          0.6140    0.4200   -2.0940 c3        1 OLA     -0.065400
      6 C4         -0.1430   -0.1020   -3.2980 c3        1 OLA     -0.078400
      7 C5          0.6130    0.1590   -4.5840 c3        1 OLA     -0.078400
      8 C6         -0.1390   -0.3710   -5.7860 c3        1 OLA     -0.079400
      9 C7          0.6170   -0.1070   -7.0710 c3        1 OLA     -0.077400
     10 C8         -0.1380   -0.6390   -8.2710 c3        1 OLA     -0.052200
     11 C9          0.5780   -0.3930   -9.5450 c2        1 OLA     -0.159200
     12 C10         0.1250   -0.7830  -10.7410 c2        1 OLA     -0.191200
     13 C11        -1.1490   -1.5140  -10.9380 c3        1 OLA     -0.046200
     14 C12        -1.4310   -1.7960  -12.3990 c3        1 OLA     -0.076400
     15 C13        -2.7360   -2.5420  -12.5700 c3        1 OLA     -0.080400
     16 C14        -3.0220   -2.8230  -14.0300 c3        1 OLA     -0.078400
     17 C15        -4.3270   -3.5710  -14.2010 c3        1 OLA     -0.079400
     18 C16        -4.6140   -3.8500  -15.6610 c3        1 OLA     -0.078400
     19 C17        -5.9180   -4.5990  -15.8330 c3        1 OLA     -0.080400
     20 C18        -6.2090   -4.8780  -17.2840 c3        1 OLA     -0.092100
     21 H21        -1.0830    0.7840   -0.7920 hc        1 OLA      0.018700
     22 H22        -0.4200   -0.8980   -0.7240 hc        1 OLA      0.018700
     23 H31         0.8020    1.5190   -2.2190 hc        1 OLA      0.044200
     24 H32         1.6160   -0.0810   -2.0210 hc        1 OLA      0.044200
     25 H41        -0.3170   -1.2040   -3.1830 hc        1 OLA      0.025700
     26 H42        -1.1510    0.3870   -3.3500 hc        1 OLA      0.025700
     27 H51         1.6230   -0.3250   -4.5270 hc        1 OLA      0.036700
     28 H52         0.7820    1.2620   -4.7020 hc        1 OLA      0.036700
     29 H61        -0.3060   -1.4740   -5.6680 hc        1 OLA      0.034200
     30 H62        -1.1510    0.1120   -5.8390 hc        1 OLA      0.034200
     31 H71         0.7820    0.9970   -7.1890 hc        1 OLA      0.039700
     32 H72         1.6280   -0.5890   -7.0170 hc        1 OLA      0.039700
     33 H81        -0.3090   -1.7440   -8.1470 hc        1 OLA      0.046700
     34 H82        -1.1550   -0.1610   -8.3170 hc        1 OLA      0.046700
     35 H9          1.5350    0.1480   -9.4620 ha        1 OLA      0.122000
     36 H10         0.7040   -0.5690  -11.6540 ha        1 OLA      0.116000
     37 H111       -1.1150   -2.4830  -10.3680 hc        1 OLA      0.047700
     38 H112       -1.9950   -0.9150  -10.5010 hc        1 OLA      0.047700
     39 H121       -1.4720   -0.8300  -12.9680 hc        1 OLA      0.038700
     40 H122       -0.5920   -2.4000  -12.8350 hc        1 OLA      0.038700
     41 H131       -3.5750   -1.9390  -12.1320 hc        1 OLA      0.040700
     42 H132       -2.6940   -3.5090  -12.0020 hc        1 OLA      0.040700
     43 H141       -3.0650   -1.8560  -14.5970 hc        1 OLA      0.037700
     44 H142       -2.1830   -3.4260  -14.4680 hc        1 OLA      0.037700
     45 H151       -4.2820   -4.5380  -13.6340 hc        1 OLA      0.039700
     46 H152       -5.1650   -2.9690  -13.7610 hc        1 OLA      0.039700
     47 H161       -3.7750   -4.4520  -16.1010 hc        1 OLA      0.038700
     48 H162       -4.6590   -2.8830  -16.2270 hc        1 OLA      0.038700
     49 H171       -6.7550   -3.9970  -15.3900 hc        1 OLA      0.038700
     50 H172       -5.8720   -5.5650  -15.2650 hc        1 OLA      0.038700
     51 H181       -7.1740   -5.4300  -17.3880 hc        1 OLA      0.031033
     52 H182       -6.2840   -3.9250  -17.8620 hc        1 OLA      0.031033
     53 H183       -5.3970   -5.4980  -17.7370 hc        1 OLA      0.031033
@<TRIPOS>BOND
     1    1    2 1   
     2    1    3 1   
     3    1    4 1   
     4    4    5 1   
     5    4   21 1   
     6    4   22 1   
     7    5    6 1   
     8    5   23 1   
     9    5   24 1   
    10    6    7 1   
    11    6   25 1   
    12    6   26 1   
    13    7    8 1   
    14    7   27 1   
    15    7   28 1   
    16    8    9 1   
    17    8   29 1   
    18    8   30 1   
    19    9   10 1   
    20    9   31 1   
    21    9   32 1   
    22   10   11 1   
    23   10   33 1   
    24   10   34 1   
    25   11   12 2   
    26   11   35 1   
    27   12   13 1   
    28   12   36 1   
    29   13   14 1   
    30   13   37 1   
    31   13   38 1   
    32   14   15 1   
    33   14   39 1   
    34   14   40 1   
    35   15   16 1   
    36   15   41 1   
    37   15   42 1   
    38   16   17 1   
    39   16   43 1   
    40   16   44 1   
    41   17   18 1   
    42   17   45 1   
    43   17   46 1   
    44   18   19 1   
    45   18   47 1   
    46   18   48 1   
    47   19   20 1   
    48   19   49 1   
    49   19   50 1   
    50   20   51 1   
    51   20   52 1   
    52   20   53 1   
@<TRIPOS>SUBSTRUCTURE
     1 OLA         1 TEMP              0 ****  ****    0 ROOT
