@<TRIPOS>MOLECULE
molecule
   53    52     1     0     0
SMALL
bcc


@<TRIPOS>ATOM
      1 C1           0.0000     0.0000     0.0000 c          1 OLA       0.890600
      2 O1           1.2080     0.0000     0.0000 o          1 OLA      -0.856800
      3 O2          -0.6710     0.0000     1.1630 o          1 OLA      -0.856800
      4 C2          -0.7540    -0.0030    -1.3050 c3         1 OLA      -0.183400
      5 C3           0.2400    -0.0030    -2.4680 c3         1 OLA      -0.062400
      6 C4          -0.5250    -0.0060    -3.7930 c3         1 OLA      -0.088400
      7 C5           0.4670    -0.0070    -4.9560 c3         1 OLA      -0.079400
      8 C6          -0.2980    -0.0080    -6.2800 c3         1 OLA      -0.088400
      9 C7           0.6960    -0.0090    -7.4430 c3         1 OLA      -0.034400
     10 C8          -0.0690    -0.0110    -8.7680 c3         1 OLA      -0.146200
     11 C9           0.9090    -0.0120    -9.9140 c2         1 OLA      -0.342200
     12 C10          0.8150    -0.9180   -10.8540 c2         1 OLA      -0.365200
     13 C11         -0.3590    -1.8610   -10.8780 c3         1 OLA      -0.146200
     14 C12         -1.0190    -1.8210   -12.2560 c3         1 OLA      -0.034400
     15 C13         -2.2120    -2.7780   -12.2800 c3         1 OLA      -0.087400
     16 C14         -2.8720    -2.7380   -13.6600 c3         1 OLA      -0.080400
     17 C15         -4.0650    -3.6940   -13.6840 c3         1 OLA      -0.082400
     18 C16         -4.7230    -3.6550   -15.0640 c3         1 OLA      -0.081400
     19 C17         -5.9170    -4.6120   -15.0870 c3         1 OLA      -0.084400
     20 C18         -6.5760    -4.5720   -16.4670 c3         1 OLA      -0.092100
     21 H21         -1.3780     0.8810    -1.3630 hc         1 OLA       0.026700
     22 H22         -1.3760    -0.8880    -1.3600 hc         1 OLA       0.026700
     23 H31          0.8640    -0.8870    -2.4100 hc         1 OLA       0.046200
     24 H32          0.8610     0.8820    -2.4120 hc         1 OLA       0.046200
     25 H41         -1.1470    -0.8910    -3.8490 hc         1 OLA       0.029200
     26 H42         -1.1490     0.8780    -3.8520 hc         1 OLA       0.029200
     27 H51          1.0900    -0.8910    -4.8980 hc         1 OLA       0.042700
     28 H52          1.0900     0.8780    -4.9000 hc         1 OLA       0.042700
     29 H61         -0.9200     0.8760    -6.3380 hc         1 OLA       0.036200
     30 H62         -0.9200    -0.8920    -6.3360 hc         1 OLA       0.036200
     31 H71          1.3190    -0.8940    -7.3850 hc         1 OLA       0.057700
     32 H72          1.3190     0.8750    -7.3870 hc         1 OLA       0.057700
     33 H81         -0.6930     0.8730    -8.8260 hc         1 OLA       0.033700
     34 H82         -0.6920    -0.8960    -8.8250 hc         1 OLA       0.033700
     35 H9          -0.0620     0.4600   -10.0040 ha         1 OLA       0.337000
     36 H10          0.8060    -1.8190   -10.2530 ha         1 OLA       0.332000
     37 H111        -0.0180    -2.8680   -10.6700 hc         1 OLA       0.034200
     38 H112        -1.0780    -1.5610   -10.1250 hc         1 OLA       0.034200
     39 H121        -0.3000    -2.1210   -13.0090 hc         1 OLA       0.055200
     40 H122        -1.3600    -0.8140   -12.4640 hc         1 OLA       0.055200
     41 H131        -2.9300    -2.4780   -11.5270 hc         1 OLA       0.041200
     42 H132        -1.8700    -3.7850   -12.0720 hc         1 OLA       0.041200
     43 H141        -2.1530    -3.0390   -14.4130 hc         1 OLA       0.042700
     44 H142        -3.2120    -1.7310   -13.8680 hc         1 OLA       0.042700
     45 H151        -4.7840    -3.3930   -12.9320 hc         1 OLA       0.041700
     46 H152        -3.7240    -4.7010   -13.4750 hc         1 OLA       0.041700
     47 H161        -5.0640    -2.6480   -15.2730 hc         1 OLA       0.040700
     48 H162        -4.0040    -3.9560   -15.8160 hc         1 OLA       0.040700
     49 H171        -5.5770    -5.6190   -14.8780 hc         1 OLA       0.040200
     50 H172        -6.6360    -4.3100   -14.3350 hc         1 OLA       0.040200
     51 H181        -6.9160    -3.5650   -16.6760 hc         1 OLA       0.031700
     52 H182        -7.4210    -5.2490   -16.4840 hc         1 OLA       0.031700
     53 H183        -5.8570    -4.8740   -17.2190 hc         1 OLA       0.031700
@<TRIPOS>BOND
     1     1     2 1
     2     1     3 1
     3     1     4 1
     4     4     5 1
     5     4    21 1
     6     4    22 1
     7     5     6 1
     8     5    23 1
     9     5    24 1
    10     6     7 1
    11     6    25 1
    12     6    26 1
    13     7     8 1
    14     7    27 1
    15     7    28 1
    16     8     9 1
    17     8    29 1
    18     8    30 1
    19     9    10 1
    20     9    31 1
    21     9    32 1
    22    10    11 1
    23    10    33 1
    24    10    34 1
    25    11    12 2
    26    11    35 1
    27    12    13 1
    28    12    36 1
    29    13    14 1
    30    13    37 1
    31    13    38 1
    32    14    15 1
    33    14    39 1
    34    14    40 1
    35    15    16 1
    36    15    41 1
    37    15    42 1
    38    16    17 1
    39    16    43 1
    40    16    44 1
    41    17    18 1
    42    17    45 1
    43    17    46 1
    44    18    19 1
    45    18    47 1
    46    18    48 1
    47    19    20 1
    48    19    49 1
    49    19    50 1
    50    20    51 1
    51    20    52 1
    52    20    53 1
@<TRIPOS>SUBSTRUCTURE
     1 OLA         1 TEMP              0 ****  ****    0 ROOT
