@<TRIPOS>MOLECULE
molecule
   65    64     1     0     0
SMALL
bcc


@<TRIPOS>ATOM
      1 C1           0.0000     0.0000     0.0000 c          1 OLB       0.632100
      2 C2           1.5060     0.0000     0.0000 c3         1 OLB      -0.126400
      3 C3           2.0170     0.0000     1.4420 c3         1 OLB      -0.072400
      4 C4           3.5470     0.0000     1.4430 c3         1 OLB      -0.083400
      5 C5           4.0560     0.0010     2.8860 c3         1 OLB      -0.078400
      6 O19         -0.6050     0.0020     1.0460 o          1 OLB      -0.550000
      7 O20         -0.6710     0.0060    -1.1630 os         1 OLB      -0.427900
      8 C21         -2.1210     0.0120    -1.0870 c3         1 OLB       0.136400
      9 C22         -2.7050     0.0180    -2.5010 c3         1 OLB       0.149100
     10 O23         -2.3670    -1.2040    -3.1610 oh         1 OLB      -0.591800
     11 C24         -4.2280     0.1500    -2.4230 c3         1 OLB       0.131400
     12 O25         -4.7630     0.2720    -3.7420 oh         1 OLB      -0.605800
     13 C6           5.5860    -0.0000     2.8850 c3         1 OLB      -0.087400
     14 C7           6.0960     0.0010     4.3280 c3         1 OLB      -0.034400
     15 C8           7.6260     0.0010     4.3290 c3         1 OLB      -0.149200
     16 C9           8.1280     0.0010     5.7490 c2         1 OLB      -0.337200
     17 C10          8.9990    -0.8980     6.1360 c2         1 OLB      -0.344200
     18 C11          9.6270    -1.8240     5.1260 c3         1 OLB      -0.144200
     19 H2           1.8670    -0.8840    -0.5110 hc         1 OLB       0.071700
     20 H2A          1.8670     0.8840    -0.5110 hc         1 OLB       0.071700
     21 H3           1.6560     0.8840     1.9530 hc         1 OLB       0.060200
     22 H3A          1.6560    -0.8850     1.9530 hc         1 OLB       0.060200
     23 H4           3.9080     0.8850     0.9320 hc         1 OLB       0.040700
     24 H4A          3.9080    -0.8840     0.9330 hc         1 OLB       0.040700
     25 H5           3.6950    -0.8830     3.3970 hc         1 OLB       0.047700
     26 H5A          3.6960     0.8860     3.3960 hc         1 OLB       0.047700
     27 H21         -2.4510     0.8960    -0.5560 h1         1 OLB       0.059700
     28 H21A        -2.4590    -0.8730    -0.5600 h1         1 OLB       0.059700
     29 H22         -2.2980     0.8540    -3.0560 h1         1 OLB       0.053700
     30 HO23        -1.8730    -1.0140    -3.9410 ho         1 OLB       0.412000
     31 H24         -4.6430    -0.7290    -1.9450 h1         1 OLB       0.032700
     32 H24A        -4.4850     1.0300    -1.8460 h1         1 OLB       0.032700
     33 HO25        -5.6900     0.4360    -3.6910 ho         1 OLB       0.407000
     34 H16          5.9470    -0.8860     2.3760 hc         1 OLB       0.040200
     35 H17          5.9480     0.8830     2.3740 hc         1 OLB       0.040200
     36 H18          5.7340    -0.8830     4.8400 hc         1 OLB       0.059200
     37 H19          5.7350     0.8860     4.8380 hc         1 OLB       0.059200
     38 H20          7.9870    -0.8840     3.8180 hc         1 OLB       0.033700
     39 H211         7.9880     0.8850     3.8180 hc         1 OLB       0.033700
     40 H221         8.6880     0.4870     4.9600 ha         1 OLB       0.330000
     41 H23          8.4950    -1.8040     5.8220 ha         1 OLB       0.330000
     42 H241         9.3260    -1.5280     4.1290 hc         1 OLB       0.033700
     43 H25          9.3010    -2.8390     5.3160 hc         1 OLB       0.033700
     44 C12         11.1500    -1.7480     5.2430 c3         1 OLB      -0.034400
     45 H26         11.4770    -0.7320     5.0540 hc         1 OLB       0.058200
     46 C13         11.7870    -2.6880     4.2170 c3         1 OLB      -0.087400
     47 H27         11.4520    -2.0440     6.2400 hc         1 OLB       0.058200
     48 C14         13.3120    -2.6120     4.3340 c3         1 OLB      -0.080400
     49 H28         11.4860    -2.3910     3.2200 hc         1 OLB       0.040700
     50 H29         11.4610    -3.7030     4.4060 hc         1 OLB       0.040700
     51 H30         13.6380    -1.5960     4.1460 hc         1 OLB       0.045200
     52 H31         13.6130    -2.9090     5.3310 hc         1 OLB       0.045200
     53 C15         13.9490    -3.5510     3.3080 c3         1 OLB      -0.082400
     54 C16         15.4720    -3.4750     3.4240 c3         1 OLB      -0.081400
     55 H32         13.6470    -3.2540     2.3100 hc         1 OLB       0.040700
     56 H33         13.6220    -4.5660     3.4960 hc         1 OLB       0.040700
     57 H34         15.7730    -3.7710     4.4220 hc         1 OLB       0.042200
     58 H35         15.7980    -2.4590     3.2350 hc         1 OLB       0.042200
     59 C17         16.1100    -4.4150     2.3990 c3         1 OLB      -0.084400
     60 C18         17.6330    -4.3390     2.5150 c3         1 OLB      -0.092100
     61 H36         15.8090    -4.1180     1.4010 hc         1 OLB       0.039700
     62 H37         15.7840    -5.4300     2.5880 hc         1 OLB       0.039700
     63 H38         17.9340    -4.6350     3.5130 hc         1 OLB       0.033033
     64 H39         18.0840    -5.0040     1.7890 hc         1 OLB       0.033033
     65 H40         17.9600    -3.3230     2.3260 hc         1 OLB       0.033033
@<TRIPOS>BOND
     1     1     6 2
     2     1     7 1
     3     2     1 1
     4     3     2 1
     5     4     3 1
     6     5     4 1
     7     5    13 1
     8     7     8 1
     9     8     9 1
    10     9    11 1
    11    10     9 1
    12    11    12 1
    13    13    14 1
    14    14    15 1
    15    15    16 1
    16    16    17 2
    17    17    18 1
    18     2    19 1
    19     2    20 1
    20     3    21 1
    21     3    22 1
    22     4    23 1
    23     4    24 1
    24     5    25 1
    25     5    26 1
    26     8    27 1
    27     8    28 1
    28     9    29 1
    29    10    30 1
    30    11    31 1
    31    11    32 1
    32    12    33 1
    33    13    34 1
    34    13    35 1
    35    14    36 1
    36    14    37 1
    37    15    38 1
    38    15    39 1
    39    16    40 1
    40    17    41 1
    41    18    42 1
    42    18    43 1
    43    18    44 1
    44    44    45 1
    45    44    46 1
    46    44    47 1
    47    46    48 1
    48    46    49 1
    49    46    50 1
    50    48    51 1
    51    48    52 1
    52    48    53 1
    53    53    54 1
    54    53    55 1
    55    53    56 1
    56    54    57 1
    57    54    58 1
    58    54    59 1
    59    59    60 1
    60    59    61 1
    61    59    62 1
    62    60    63 1
    63    60    64 1
    64    60    65 1
@<TRIPOS>SUBSTRUCTURE
     1 OLB         1 TEMP              0 ****  ****    0 ROOT
