@<TRIPOS>MOLECULE
OLB
   65    58     1     0     0
SMALL
bcc


@<TRIPOS>ATOM
      1 C1          2.0940   -2.4690    2.4010 c2        1 OLB      0.342000
      2 C2          2.7600   -1.5110    1.5220 c2        1 OLB     -0.227000
      3 C3          4.0280   -1.1350    1.7370 c2        1 OLB     -0.052000
      4 C4          4.7470   -0.1750    0.8810 c3        1 OLB     -0.217000
      5 C5          5.5450    4.7470    2.9270 c3        1 OLB     -0.208000
      6 O19         2.5140   -3.0640    3.3990 o         1 OLB     -0.363000
      7 O20         0.7970   -2.7420    2.0480 oh        1 OLB     -0.342000
      8 C21        -1.8820   -1.2220    0.9140 c3        1 OLB     -0.223000
      9 C22        -1.1050   -0.6060   -0.2300 c3        1 OLB     -0.095000
     10 O23         0.1120   -1.2920   -0.5180 oh        1 OLB     -0.377000
     11 C24        -1.9610   -0.5380   -1.4700 c1        1 OLB      0.026000
     12 O25        -1.5270   -1.0570   -2.5640 oh        1 OLB     -0.152000
     13 C6          5.2650    3.2970    2.5970 c3        1 OLB     -0.058000
     14 C7          7.7260   -1.8580   -0.6340 c3        1 OLB     -0.271000
     15 C8          6.2700    2.4130    3.1030 c1        1 OLB     -0.130000
     16 C9          7.1100    1.6660    3.5240 c1        1 OLB     -0.054000
     17 C10         8.0520    0.8180    3.9940 c1        1 OLB     -0.063000
     18 C11         8.8870    0.0630    4.4100 c1        1 OLB     -0.116000
     19 H2          4.1120    0.2000    0.0410 hc        1 OLB      0.099333
     20 H2A         2.1500   -1.1270    0.6860 ha        1 OLB      0.168000
     21 H3          4.6000   -1.5440    2.5910 ha        1 OLB      0.146000
     22 H3A         5.6590   -0.6630    0.4460 hc        1 OLB      0.099333
     23 H4          5.3620    2.6550   -0.8510 ha        1 OLB      0.004500
     24 H4A         5.3000    2.0580   -0.5370 ha        1 OLB      0.004500
     25 H5          5.1970    3.1720    1.4770 hc        1 OLB      0.101000
     26 H5A         5.0850    0.7040    1.4930 hc        1 OLB      0.099333
     27 H21         0.4230   -3.3830    2.6730 ho        1 OLB      0.245000
     28 H21A       -1.2140   -1.3440    1.8020 hc        1 OLB      0.092333
     29 H22        -2.7430   -0.5650    1.1830 hc        1 OLB      0.092333
     30 HO23        0.1700   -2.0710    0.0510 ho        1 OLB      0.230000
     31 H24        -0.8080    0.4540    0.0270 h1        1 OLB      0.128000
     32 H24A       -2.2750   -2.2260    0.6250 hc        1 OLB      0.092333
     33 HO25       -0.6420   -1.4910   -2.5220 ho        1 OLB      0.185000
     34 H16         4.7330    5.3910    2.5110 hc        1 OLB      0.082000
     35 H17         6.5190    5.0720    2.4880 hc        1 OLB      0.082000
     36 H18         5.5890    4.8990    4.0330 hc        1 OLB      0.082000
     37 H19         7.0880   -1.3450   -1.3870 hc        1 OLB      0.068250
     38 H20         8.5990   -2.3210   -1.1430 hc        1 OLB      0.068250
     39 H211        8.0840   -1.1190    0.1160 hc        1 OLB      0.068250
     40 H221        7.1350   -2.6480   -0.1220 hc        1 OLB      0.068250
     41 H23         4.2650    3.0010    3.0250 hc        1 OLB      0.101000
     42 H241        9.2950   -3.1150    1.0310 ha        1 OLB      0.004500
     43 H25         9.7030   -3.3130    1.5350 ha        1 OLB      0.004500
     44 C12         9.8830   -0.8320    4.9130 c3        1 OLB     -0.055000
     45 H26        10.8330   -0.2590    5.1080 hc        1 OLB      0.104000
     46 C13        10.1680   -1.9720    3.9490 c3        1 OLB     -0.157000
     47 H27         9.5400   -1.2530    5.9010 hc        1 OLB      0.104000
     48 C14        11.2310   -2.8950    4.5050 c3        1 OLB     -0.159000
     49 H28         9.2250   -2.5510    3.7600 hc        1 OLB      0.089500
     50 H29        10.5040   -1.5580    2.9620 hc        1 OLB      0.089500
     51 H30        12.1720   -2.3140    4.6920 hc        1 OLB      0.080000
     52 H31        10.8940   -3.3070    5.4930 hc        1 OLB      0.080000
     53 C15        11.5120   -4.0350    3.5490 c3        1 OLB     -0.164000
     54 C16        12.5560   -4.9920    4.0810 c3        1 OLB     -0.139000
     55 H32        10.5590   -4.6010    3.3660 hc        1 OLB      0.082000
     56 H33        11.8420   -3.6220    2.5590 hc        1 OLB      0.082000
     57 H34        12.3460   -5.2340    5.1560 hc        1 OLB      0.092000
     58 H35        12.4990   -5.9560    3.5080 hc        1 OLB      0.092000
     59 C17        13.9640   -4.4400    3.9560 c3        1 OLB     -0.244000
     60 C18        14.9530   -5.2930    4.5930 c1        1 OLB     -0.062000
     61 H36        14.1750   -4.2000    2.8770 hc        1 OLB      0.106000
     62 H37        14.0340   -3.4610    4.5250 hc        1 OLB      0.106000
     63 H38        14.7740   -7.0230    3.1530 ha        1 OLB      0.004500
     64 H39        15.9790   -5.1860    4.2040 ha        1 OLB      0.030000
     65 H40        14.5270   -7.2750    3.7370 ha        1 OLB      0.004500
@<TRIPOS>BOND
     1    1    2 1   
     2    1    6 1   
     3    1    7 1   
     4    2    3 1   
     5    2   20 1   
     6    3    4 1   
     7    3   21 1   
     8    4   19 1   
     9    4   22 1   
    10    4   26 1   
    11    5   13 1   
    12    5   34 1   
    13    5   35 1   
    14    5   36 1   
    15    7   27 1   
    16    8    9 1   
    17    8   28 1   
    18    8   29 1   
    19    8   32 1   
    20    9   10 1   
    21    9   11 1   
    22    9   31 1   
    23   10   30 1   
    24   11   12 1   
    25   12   33 1   
    26   13   15 1   
    27   13   25 1   
    28   13   41 1   
    29   14   37 1   
    30   14   38 1   
    31   14   39 1   
    32   14   40 1   
    33   15   16 1   
    34   16   17 1   
    35   17   18 1   
    36   18   44 1   
    37   23   24 1   
    38   42   43 1   
    39   44   45 1   
    40   44   46 1   
    41   44   47 1   
    42   46   48 1   
    43   46   49 1   
    44   46   50 1   
    45   48   51 1   
    46   48   52 1   
    47   48   53 1   
    48   53   54 1   
    49   53   55 1   
    50   53   56 1   
    51   54   57 1   
    52   54   58 1   
    53   54   59 1   
    54   59   60 1   
    55   59   61 1   
    56   59   62 1   
    57   60   64 1   
    58   63   65 1   
@<TRIPOS>SUBSTRUCTURE
     1 OLB         1 TEMP              0 ****  ****    0 ROOT
