@<TRIPOS>MOLECULE
OLC
   65    64     1     0     0
SMALL
bcc


@<TRIPOS>ATOM
      1 C18        -0.6660    0.7000    0.4690 c3        1 OLC     -0.092100
      2 C10         8.1580   -0.1310    5.0650 c2        1 OLC     -0.172200
      3 C9          9.4070   -0.5640    5.2660 c2        1 OLC     -0.175200
      4 C17         0.7150    0.1000    0.4240 c3        1 OLC     -0.080400
      5 C11         7.3340   -0.5090    3.8940 c3        1 OLC     -0.049200
      6 C8         10.1190   -1.4780    4.3420 c3        1 OLC     -0.048200
      7 C24        21.5020   -4.7580    1.0130 c3        1 OLC      0.088400
      8 C16         1.5360    0.5010    1.6310 c3        1 OLC     -0.079400
      9 C12         5.9470    0.0970    3.9460 c3        1 OLC     -0.077400
     10 C7         11.5370   -1.7600    4.7920 c3        1 OLC     -0.077400
     11 C15         2.9220   -0.1040    1.5810 c3        1 OLC     -0.079400
     12 C13         5.1280   -0.3060    2.7390 c3        1 OLC     -0.079400
     13 C6         12.2400   -2.6940    3.8300 c3        1 OLC     -0.079400
     14 C14         3.7410    0.2980    2.7890 c3        1 OLC     -0.079400
     15 C5         13.6580   -2.9750    4.2770 c3        1 OLC     -0.079400
     16 C4         14.3610   -3.9090    3.3140 c3        1 OLC     -0.078400
     17 C3         15.7780   -4.1890    3.7660 c3        1 OLC     -0.079400
     18 C2         16.4810   -5.1080    2.7890 c3        1 OLC     -0.126400
     19 C21        20.0830   -6.0090    2.6840 c3        1 OLC      0.138400
     20 C1         17.8320   -5.5000    3.2990 c         1 OLC      0.634100
     21 C22        20.8820   -6.1070    1.3830 c3        1 OLC      0.104100
     22 O19        18.1900   -5.7540    4.4490 o         1 OLC     -0.535000
     23 O23        21.8780   -7.0940    1.6040 oh        1 OLC     -0.598800
     24 O20        18.7650   -5.5880    2.2980 os        1 OLC     -0.453900
     25 H18        -1.2530    0.3910   -0.4290 hc        1 OLC      0.032700
     26 H18A       -0.6110    1.8150    0.4890 hc        1 OLC      0.032700
     27 H18B       -1.2140    0.3600    1.3820 hc        1 OLC      0.032700
     28 H10         7.6820    0.5480    5.7920 ha        1 OLC      0.122000
     29 H9          9.9700   -0.2450    6.1590 ha        1 OLC      0.122000
     30 H17         1.2400    0.4320   -0.5110 hc        1 OLC      0.038700
     31 H17A        0.6390   -1.0190    0.3790 hc        1 OLC      0.038700
     32 H11         7.2530   -1.6300    3.8400 hc        1 OLC      0.047700
     33 H11A        7.8520   -0.1790    2.9510 hc        1 OLC      0.047700
     34 H8         10.1330   -1.0310    3.3100 hc        1 OLC      0.047200
     35 H8A         9.5500   -2.4460    4.2640 hc        1 OLC      0.047200
     36 H24        20.6940   -3.9940    0.8710 h1        1 OLC      0.064200
     37 H24A       22.2170   -4.4170    1.8100 h1        1 OLC      0.064200
     38 H16         1.0140    0.1690    2.5670 hc        1 OLC      0.039700
     39 H16A        1.6140    1.6190    1.6770 hc        1 OLC      0.039700
     40 H12         5.4260   -0.2370    4.8830 hc        1 OLC      0.041700
     41 H12A        6.0260    1.2150    3.9920 hc        1 OLC      0.041700
     42 H7         11.5240   -2.2160    5.8170 hc        1 OLC      0.042700
     43 H7A        12.1070   -0.7970    4.8660 hc        1 OLC      0.042700
     44 H15         2.8430   -1.2220    1.5360 hc        1 OLC      0.039700
     45 H15A        3.4440    0.2290    0.6450 hc        1 OLC      0.039700
     46 H13         5.0490   -1.4250    2.6940 hc        1 OLC      0.039700
     47 H13A        5.6490    0.0260    1.8030 hc        1 OLC      0.039700
     48 H6         11.6700   -3.6580    3.7570 hc        1 OLC      0.040200
     49 H6A        12.2520   -2.2390    2.8040 hc        1 OLC      0.040200
     50 H14         3.8200    1.4170    2.8340 hc        1 OLC      0.039700
     51 H14A        3.2200   -0.0340    3.7250 hc        1 OLC      0.039700
     52 H5         13.6470   -3.4320    5.3020 hc        1 OLC      0.043200
     53 H5A        14.2280   -2.0110    4.3510 hc        1 OLC      0.043200
     54 H4         13.7910   -4.8720    3.2400 hc        1 OLC      0.040700
     55 H4A        14.3750   -3.4520    2.2890 hc        1 OLC      0.040700
     56 H3         16.3460   -3.2260    3.8530 hc        1 OLC      0.058200
     57 H3A        15.7710   -4.6620    4.7850 hc        1 OLC      0.058200
     58 H2         16.5830   -4.6140    1.7870 hc        1 OLC      0.078200
     59 H2A        15.8900   -6.0530    2.6480 hc        1 OLC      0.078200
     60 H21        20.5170   -5.2530    3.3870 h1        1 OLC      0.069200
     61 H21A       20.0250   -7.0050    3.1940 h1        1 OLC      0.069200
     62 H22        20.2100   -6.4560    0.5470 h1        1 OLC      0.051700
     63 HO25       21.7060   -5.0620   -0.8880 ho        1 OLC      0.402000
     64 HO23       22.5900   -6.9190    0.9730 ho        1 OLC      0.421000
     65 O25        22.2990   -4.8860   -0.1480 oh        1 OLC     -0.600800
@<TRIPOS>BOND
     1    1    4 1   
     2    1   25 1   
     3    1   26 1   
     4    1   27 1   
     5    2    3 2   
     6    2    5 1   
     7    2   28 1   
     8    3    6 1   
     9    3   29 1   
    10    4    8 1   
    11    4   30 1   
    12    4   31 1   
    13    5    9 1   
    14    5   32 1   
    15    5   33 1   
    16    6   10 1   
    17    6   34 1   
    18    6   35 1   
    19    7   21 1   
    20    7   36 1   
    21    7   37 1   
    22    7   65 1   
    23    8   11 1   
    24    8   38 1   
    25    8   39 1   
    26    9   12 1   
    27    9   40 1   
    28    9   41 1   
    29   10   13 1   
    30   10   42 1   
    31   10   43 1   
    32   11   14 1   
    33   11   44 1   
    34   11   45 1   
    35   12   14 1   
    36   12   46 1   
    37   12   47 1   
    38   13   15 1   
    39   13   48 1   
    40   13   49 1   
    41   14   50 1   
    42   14   51 1   
    43   15   16 1   
    44   15   52 1   
    45   15   53 1   
    46   16   17 1   
    47   16   54 1   
    48   16   55 1   
    49   17   18 1   
    50   17   56 1   
    51   17   57 1   
    52   18   20 1   
    53   18   58 1   
    54   18   59 1   
    55   19   21 1   
    56   19   24 1   
    57   19   60 1   
    58   19   61 1   
    59   20   22 2   
    60   20   24 1   
    61   21   23 1   
    62   21   62 1   
    63   23   64 1   
    64   63   65 1   
@<TRIPOS>SUBSTRUCTURE
     1 OLC         1 TEMP              0 ****  ****    0 ROOT
