@<TRIPOS>MOLECULE
molecule
   65    64     1     0     0
SMALL
bcc


@<TRIPOS>ATOM
      1 C18          0.0000     0.0000     0.0000 c3         1 OLC      -0.092100
      2 C10          8.1530     0.0010     5.7460 c2         1 OLC      -0.341200
      3 C9           9.0180    -0.9030     6.1360 c2         1 OLC      -0.339200
      4 C17          1.5300     0.0000     0.0000 c3         1 OLC      -0.084400
      5 C11          7.6500     0.0000     4.3270 c3         1 OLC      -0.146200
      6 C8           9.6380    -1.8350     5.1270 c3         1 OLC      -0.147200
      7 C24         22.0200    -5.8630     1.0530 c3         1 OLC       0.131400
      8 C16          2.0400     0.0000     1.4420 c3         1 OLC      -0.081400
      9 C12          6.1200     0.0000     4.3270 c3         1 OLC      -0.034400
     10 C7          11.1630    -1.7860     5.2570 c3         1 OLC      -0.034400
     11 C15          3.5700    -0.0000     1.4420 c3         1 OLC      -0.082400
     12 C13          5.6100    -0.0000     2.8840 c3         1 OLC      -0.087400
     13 C6          11.7920    -2.7320     4.2320 c3         1 OLC      -0.087400
     14 C14          4.0800     0.0000     2.8850 c3         1 OLC      -0.080400
     15 C5          13.3160    -2.6820     4.3620 c3         1 OLC      -0.078400
     16 C4          13.9460    -3.6300     3.3380 c3         1 OLC      -0.084400
     17 C3          15.4700    -3.5790     3.4670 c3         1 OLC      -0.072400
     18 C2          16.0990    -4.5260     2.4430 c3         1 OLC      -0.125400
     19 C21         19.8050    -5.1330     1.9470 c3         1 OLC       0.136400
     20 C1          17.6000    -4.4770     2.5710 c          1 OLC       0.632100
     21 C22         20.5060    -6.0580     0.9500 c3         1 OLC       0.149100
     22 O19         18.1140    -3.7590     3.3960 o          1 OLC      -0.550000
     23 O23         20.1790    -7.4170     1.2500 oh         1 OLC      -0.591800
     24 O20         18.3670    -5.2320     1.7680 os         1 OLC      -0.427900
     25 H18         -0.3610     0.0000    -1.0210 hc         1 OLC       0.033033
     26 H18A        -0.3610     0.8840     0.5110 hc         1 OLC       0.033033
     27 H18B        -0.3610    -0.8850     0.5110 hc         1 OLC       0.033033
     28 H10          8.7170     0.4800     4.9550 ha         1 OLC       0.330000
     29 H9           8.5090    -1.8070     5.8250 ha         1 OLC       0.330000
     30 H17          1.8910    -0.8840    -0.5110 hc         1 OLC       0.039700
     31 H17A         1.8910     0.8840    -0.5110 hc         1 OLC       0.039700
     32 H11          8.0110    -0.8840     3.8160 hc         1 OLC       0.033200
     33 H11A         8.0110     0.8850     3.8160 hc         1 OLC       0.033200
     34 H8           9.2930    -2.8460     5.3100 hc         1 OLC       0.033700
     35 H8A          9.3510    -1.5300     4.1290 hc         1 OLC       0.033700
     36 H24         22.2600    -4.8160     0.9120 h1         1 OLC       0.032700
     37 H24A        22.3600    -6.1830     2.0300 h1         1 OLC       0.032700
     38 H16          1.6790     0.8840     1.9530 hc         1 OLC       0.042200
     39 H16A         1.6790    -0.8840     1.9530 hc         1 OLC       0.042200
     40 H12          5.7590    -0.8840     4.8380 hc         1 OLC       0.058700
     41 H12A         5.7590     0.8850     4.8370 hc         1 OLC       0.058700
     42 H7          11.5080    -0.7750     5.0750 hc         1 OLC       0.059200
     43 H7A         11.4500    -2.0910     6.2550 hc         1 OLC       0.059200
     44 H15          3.9310     0.8840     0.9310 hc         1 OLC       0.040700
     45 H15A         3.9310    -0.8850     0.9310 hc         1 OLC       0.040700
     46 H13          5.9710    -0.8850     2.3730 hc         1 OLC       0.040700
     47 H13A         5.9710     0.8840     2.3730 hc         1 OLC       0.040700
     48 H6          11.5040    -2.4260     3.2340 hc         1 OLC       0.040700
     49 H6A         11.4470    -3.7420     4.4140 hc         1 OLC       0.040700
     50 H14          3.7190    -0.8840     3.3960 hc         1 OLC       0.045200
     51 H14A         3.7200     0.8850     3.3950 hc         1 OLC       0.045200
     52 H5          13.6610    -1.6720     4.1790 hc         1 OLC       0.048200
     53 H5A         13.6040    -2.9870     5.3610 hc         1 OLC       0.048200
     54 H4          13.6580    -3.3250     2.3390 hc         1 OLC       0.040700
     55 H4A         13.6010    -4.6400     3.5220 hc         1 OLC       0.040700
     56 H3          15.7580    -3.8830     4.4660 hc         1 OLC       0.060200
     57 H3A         15.8140    -2.5680     3.2840 hc         1 OLC       0.060200
     58 H2          15.7540    -5.5370     2.6260 hc         1 OLC       0.071700
     59 H2A         15.8120    -4.2210     1.4440 hc         1 OLC       0.071700
     60 H21         20.1210    -4.1110     1.7760 h1         1 OLC       0.059700
     61 H21A        20.0640    -5.4270     2.9570 h1         1 OLC       0.059700
     62 H22         20.1780    -5.8210    -0.0550 h1         1 OLC       0.053700
     63 HO25        23.5950    -6.4570     0.0530 ho         1 OLC       0.407000
     64 HO23        19.7610    -7.8120     0.5030 ho         1 OLC       0.412000
     65 O25         22.6700    -6.6400     0.0440 oh         1 OLC      -0.605800
@<TRIPOS>BOND
     1     1     4 1
     2     2     3 2
     3     2     5 1
     4     3     6 1
     5     4     8 1
     6     5     9 1
     7     6    10 1
     8     7    21 1
     9     7    65 1
    10     8    11 1
    11     9    12 1
    12    10    13 1
    13    11    14 1
    14    12    14 1
    15    13    15 1
    16    15    16 1
    17    16    17 1
    18    17    18 1
    19    18    20 1
    20    19    21 1
    21    19    24 1
    22    20    22 2
    23    20    24 1
    24    21    23 1
    25     1    25 1
    26     1    26 1
    27     1    27 1
    28     2    28 1
    29     3    29 1
    30     4    30 1
    31     4    31 1
    32     5    32 1
    33     5    33 1
    34     6    34 1
    35     6    35 1
    36     7    36 1
    37     7    37 1
    38     8    38 1
    39     8    39 1
    40     9    40 1
    41     9    41 1
    42    10    42 1
    43    10    43 1
    44    11    44 1
    45    11    45 1
    46    12    46 1
    47    12    47 1
    48    13    48 1
    49    13    49 1
    50    14    50 1
    51    14    51 1
    52    15    52 1
    53    15    53 1
    54    16    54 1
    55    16    55 1
    56    17    56 1
    57    17    57 1
    58    18    58 1
    59    18    59 1
    60    19    60 1
    61    19    61 1
    62    21    62 1
    63    65    63 1
    64    23    64 1
@<TRIPOS>SUBSTRUCTURE
     1 OLC         1 TEMP              0 ****  ****    0 ROOT
