@<TRIPOS>MOLECULE
OLF
   63    67     1     0     0
SMALL
bcc


@<TRIPOS>ATOM
      1 N1           0.0000     0.0000     0.0000 na         1 OLF       0.364700
      2 C2           1.3700     0.0000     0.0000 cc         1 OLF       0.300400
      3 N3           1.8120     0.0000     1.2340 nd         1 OLF      -0.515100
      4 C4          -0.4080     0.0010     1.3200 ca         1 OLF      -0.235200
      5 C5           0.7650     0.0010     2.0940 ca         1 OLF       0.075400
      6 C6          -0.7260     1.3190    -1.9040 c          1 OLF       0.525100
      7 C7          -0.8690     0.0050    -1.1800 c3         1 OLF      -0.152000
      8 C8          -1.6490     0.0020     1.9420 ca         1 OLF      -0.145000
      9 C10          0.6700     0.0020     3.4900 ca         1 OLF      -0.052000
     10 C11         -1.7280     0.0030     3.3200 ca         1 OLF       0.082900
     11 C12         -0.8080     2.5950    -3.9040 ca         1 OLF      -0.156400
     12 C14          2.2200    -0.0010    -1.2100 ca         1 OLF      -0.094900
     13 C15         -0.5690     0.0010     4.0910 ca         1 OLF       0.055900
     14 C16         -0.6710     5.0300    -5.2200 ca         1 OLF      -0.094600
     15 C17         -1.4690     4.0020    -5.7300 ca         1 OLF      -0.066000
     16 C18         -1.5350     2.7930    -5.0730 ca         1 OLF      -0.148300
     17 O20         -1.2330     6.5010    -6.9420 o          1 OLF      -0.881800
     18 C21         -0.0150     3.6180    -3.3910 ca         1 OLF      -0.135000
     19 C22          0.0540     4.8300    -4.0420 ca         1 OLF      -0.054000
     20 C23         -2.3230    -0.1810    -0.7420 c3         1 OLF      -0.068700
     21 C24          3.4500     0.6600    -1.2010 ca         1 OLF      -0.079000
     22 C25          1.8000    -0.6670    -2.3610 ca         1 OLF      -0.079000
     23 F26         -2.9360     0.0040     3.9240 f          1 OLF      -0.122900
     24 F27         -0.6610     0.0010     5.4390 f          1 OLF      -0.123900
     25 O28          0.1710     7.3160    -5.4280 o          1 OLF      -0.881800
     26 C29          3.8140    -0.0030    -3.4740 ca         1 OLF      -0.021600
     27 C30          4.2390     0.6540    -2.3320 ca         1 OLF      -0.095000
     28 C31          2.5980    -0.6640    -3.4860 ca         1 OLF      -0.095000
     29 Cl32         4.8130    -0.0040    -4.8940 cl         1 OLF      -0.024400
     30 C33         -2.3950     1.6850    -5.6230 c3         1 OLF       0.070200
     31 C34         -3.2400    -0.0810    -1.9630 c3         1 OLF      -0.057400
     32 C35         -2.4890    -1.5570    -0.0920 c3         1 OLF      -0.057400
     33 C36         -3.9430    -1.7420     0.3450 c3         1 OLF      -0.021400
     34 C37         -4.6950    -0.2670    -1.5250 c3         1 OLF      -0.021400
     35 C38         -4.8600    -1.6420    -0.8760 c3         1 OLF      -0.027400
     36 H7          -0.5840    -0.8050    -1.8410 h1         1 OLF       0.056700
     37 H8          -2.5540     0.0040     1.3470 ha         1 OLF       0.167000
     38 HN9         -0.9830     0.5240    -3.7660 hn         1 OLF       0.158500
     39 H10          1.5680     0.0000     4.0960 ha         1 OLF       0.126000
     40 H17         -2.0360     4.1570    -6.6400 ha         1 OLF       0.126000
     41 H21          0.5460     3.4610    -2.4780 ha         1 OLF       0.137000
     42 H22          0.6700     5.6250    -3.6420 ha         1 OLF       0.134000
     43 H23         -2.5910     0.5880    -0.0280 hc         1 OLF       0.074700
     44 H24          3.7830     1.1750    -0.3080 ha         1 OLF       0.117500
     45 H25          0.8480    -1.1840    -2.3720 ha         1 OLF       0.117500
     46 H30          5.1930     1.1680    -2.3270 ha         1 OLF       0.116000
     47 H31          2.2710    -1.1790    -4.3820 ha         1 OLF       0.116000
     48 H33         -1.8360     0.7560    -5.6150 hc         1 OLF      -0.004633
     49 H33A        -3.2810     1.5770    -5.0090 hc         1 OLF      -0.004633
     50 H33B        -2.6860     1.9230    -6.6390 hc         1 OLF      -0.004633
     51 H34         -2.9770    -0.8540    -2.6750 hc         1 OLF       0.032200
     52 H34A        -3.1240     0.8940    -2.4210 hc         1 OLF       0.032200
     53 H35         -2.2270    -2.3270    -0.8070 hc         1 OLF       0.032200
     54 H35A        -1.8420    -1.6260     0.7740 hc         1 OLF       0.032200
     55 H36         -4.0590    -2.7170     0.8030 hc         1 OLF       0.019200
     56 H36A        -4.2060    -0.9690     1.0570 hc         1 OLF       0.019200
     57 H37         -4.9560     0.5030    -0.8100 hc         1 OLF       0.019200
     58 H37A        -5.3420    -0.1980    -2.3910 hc         1 OLF       0.019200
     59 H38         -5.8890    -1.7710    -0.5640 hc         1 OLF       0.013200
     60 H38A        -4.5940    -2.4120    -1.5900 hc         1 OLF       0.013200
     61 N9          -0.8760     1.3700    -3.2420 ns         1 OLF       0.008900
     62 C13         -0.5980     6.3260    -5.9200 c          1 OLF       0.971200
     63 O19         -0.4760     2.3290    -1.2820 o          1 OLF      -0.613100
@<TRIPOS>BOND
     1     1     2 1   
     2     1     4 1   
     3     1     7 1   
     4     2     3 2   
     5     2    12 1   
     6     3     5 1   
     7     4     5 ar  
     8     4     8 ar  
     9     5     9 ar  
    10     6     7 1   
    11     6    61 1   
    12     6    63 2   
    13     7    20 1   
    14     7    36 1   
    15     8    10 ar  
    16     8    37 1   
    17     9    13 ar  
    18     9    39 1   
    19    10    13 ar  
    20    10    23 1   
    21    11    16 ar  
    22    11    18 ar  
    23    11    61 1   
    24    12    21 ar  
    25    12    22 ar  
    26    13    24 1   
    27    14    15 ar  
    28    14    19 ar  
    29    14    62 1   
    30    15    16 ar  
    31    15    40 1   
    32    16    30 1   
    33    17    62 1   
    34    18    19 ar  
    35    18    41 1   
    36    19    42 1   
    37    20    31 1   
    38    20    32 1   
    39    20    43 1   
    40    21    27 ar  
    41    21    44 1   
    42    22    28 ar  
    43    22    45 1   
    44    25    62 1   
    45    26    27 ar  
    46    26    28 ar  
    47    26    29 1   
    48    27    46 1   
    49    28    47 1   
    50    30    48 1   
    51    30    49 1   
    52    30    50 1   
    53    31    34 1   
    54    31    51 1   
    55    31    52 1   
    56    32    33 1   
    57    32    53 1   
    58    32    54 1   
    59    33    35 1   
    60    33    55 1   
    61    33    56 1   
    62    34    35 1   
    63    34    57 1   
    64    34    58 1   
    65    35    59 1   
    66    35    60 1   
    67    38    61 1   
@<TRIPOS>SUBSTRUCTURE
     1 OLF         1 TEMP              0 ****  ****    0 ROOT
