@<TRIPOS>MOLECULE
OLI
   53    52     1     0     0
SMALL
bcc


@<TRIPOS>ATOM
      1 C1          0.6970    0.5960    0.4120 c         1 OLI      0.907600
      2 O1          1.8910    0.1800    0.4630 o         1 OLI     -0.853300
      3 O2          0.1520    1.2840    1.3230 o         1 OLI     -0.853300
      4 C2         -0.1580    0.2290   -0.8150 c3        1 OLI     -0.194400
      5 C3          0.6010    0.4550   -2.1000 c3        1 OLI     -0.065400
      6 C4         -0.1530   -0.0740   -3.3020 c3        1 OLI     -0.078400
      7 C5          0.6080    0.1730   -4.5870 c3        1 OLI     -0.078400
      8 C6         -0.1400   -0.3650   -5.7870 c3        1 OLI     -0.079400
      9 C7          0.6230   -0.1150   -7.0710 c3        1 OLI     -0.077400
     10 C8         -0.1290   -0.6560   -8.2700 c3        1 OLI     -0.052200
     11 C9          0.5940   -0.4240   -9.5430 c2        1 OLI     -0.159200
     12 C10         0.1370   -0.8090  -10.7390 c2        1 OLI     -0.191200
     13 C11        -1.1500   -1.5170  -10.9380 c3        1 OLI     -0.046200
     14 C12        -1.4200   -1.8210  -12.3970 c3        1 OLI     -0.076400
     15 C13        -2.7390   -2.5430  -12.5690 c3        1 OLI     -0.080400
     16 C14        -3.0120   -2.8480  -14.0270 c3        1 OLI     -0.078400
     17 C15        -4.3310   -3.5710  -14.1990 c3        1 OLI     -0.079400
     18 C16        -4.6040   -3.8760  -15.6560 c3        1 OLI     -0.078400
     19 C17        -5.9220   -4.6000  -15.8300 c3        1 OLI     -0.080400
     20 C18        -6.1990   -4.9070  -17.2790 c3        1 OLI     -0.092100
     21 H21        -1.0980    0.8340   -0.8060 hc        1 OLI      0.018700
     22 H22        -0.4420   -0.8500   -0.7230 hc        1 OLI      0.018700
     23 H31         0.7940    1.5520   -2.2320 hc        1 OLI      0.044200
     24 H32         1.6020   -0.0490   -2.0190 hc        1 OLI      0.044200
     25 H41        -0.3310   -1.1750   -3.1780 hc        1 OLI      0.025700
     26 H42        -1.1590    0.4170   -3.3610 hc        1 OLI      0.025700
     27 H51         1.6170   -0.3130   -4.5220 hc        1 OLI      0.036700
     28 H52         0.7810    1.2740   -4.7140 hc        1 OLI      0.036700
     29 H61        -0.3110   -1.4660   -5.6600 hc        1 OLI      0.034200
     30 H62        -1.1490    0.1200   -5.8490 hc        1 OLI      0.034200
     31 H71         0.7920    0.9870   -7.1990 hc        1 OLI      0.039700
     32 H72         1.6320   -0.6000   -7.0090 hc        1 OLI      0.039700
     33 H81        -0.3040   -1.7590   -8.1370 hc        1 OLI      0.046700
     34 H82        -1.1440   -0.1740   -8.3250 hc        1 OLI      0.046700
     35 H9          1.5610    0.0990   -9.4590 ha        1 OLI      0.122000
     36 H10         0.7230   -0.6080  -11.6510 ha        1 OLI      0.116000
     37 H111       -1.1440   -2.4750  -10.3480 hc        1 OLI      0.047700
     38 H112       -1.9880   -0.8910  -10.5230 hc        1 OLI      0.047700
     39 H121       -1.4340   -0.8660  -12.9840 hc        1 OLI      0.038700
     40 H122       -0.5890   -2.4520  -12.8090 hc        1 OLI      0.038700
     41 H131       -3.5700   -1.9130  -12.1550 hc        1 OLI      0.040700
     42 H132       -2.7250   -3.4980  -11.9810 hc        1 OLI      0.040700
     43 H141       -3.0270   -1.8930  -14.6140 hc        1 OLI      0.037700
     44 H142       -2.1810   -3.4780  -14.4410 hc        1 OLI      0.037700
     45 H151       -4.3160   -4.5260  -13.6110 hc        1 OLI      0.039700
     46 H152       -5.1620   -2.9410  -13.7850 hc        1 OLI      0.039700
     47 H161       -3.7730   -4.5060  -16.0710 hc        1 OLI      0.038700
     48 H162       -4.6200   -2.9210  -16.2440 hc        1 OLI      0.038700
     49 H171       -6.7520   -3.9700  -15.4130 hc        1 OLI      0.038700
     50 H172       -5.9050   -5.5540  -15.2400 hc        1 OLI      0.038700
     51 H181       -7.1740   -5.4400  -17.3850 hc        1 OLI      0.031033
     52 H182       -6.2440   -3.9660  -17.8800 hc        1 OLI      0.031033
     53 H183       -5.3950   -5.5540  -17.7060 hc        1 OLI      0.031033
@<TRIPOS>BOND
     1    1    2 1   
     2    1    3 1   
     3    1    4 1   
     4    4    5 1   
     5    4   21 1   
     6    4   22 1   
     7    5    6 1   
     8    5   23 1   
     9    5   24 1   
    10    6    7 1   
    11    6   25 1   
    12    6   26 1   
    13    7    8 1   
    14    7   27 1   
    15    7   28 1   
    16    8    9 1   
    17    8   29 1   
    18    8   30 1   
    19    9   10 1   
    20    9   31 1   
    21    9   32 1   
    22   10   11 1   
    23   10   33 1   
    24   10   34 1   
    25   11   12 2   
    26   11   35 1   
    27   12   13 1   
    28   12   36 1   
    29   13   14 1   
    30   13   37 1   
    31   13   38 1   
    32   14   15 1   
    33   14   39 1   
    34   14   40 1   
    35   15   16 1   
    36   15   41 1   
    37   15   42 1   
    38   16   17 1   
    39   16   43 1   
    40   16   44 1   
    41   17   18 1   
    42   17   45 1   
    43   17   46 1   
    44   18   19 1   
    45   18   47 1   
    46   18   48 1   
    47   19   20 1   
    48   19   49 1   
    49   19   50 1   
    50   20   51 1   
    51   20   52 1   
    52   20   53 1   
@<TRIPOS>SUBSTRUCTURE
     1 OLI         1 TEMP              0 ****  ****    0 ROOT
