@<TRIPOS>MOLECULE
OLM
   58    61     1     0     0
SMALL
bcc


@<TRIPOS>ATOM
      1 C4          0.0620   -0.6410    0.3180 ca        1 OLM     -0.136500
      2 C3          1.4490   -0.5380    0.4200 ca        1 OLM     -0.114000
      3 O3          6.6600    4.5620    3.2120 oh        1 OLM     -0.636800
      4 C2          2.0280    0.1390    1.4960 ca        1 OLM     -0.080300
      5 O2          3.5290    1.2180    4.3720 o         1 OLM     -0.820300
      6 C1          3.5250    0.2340    1.6370 c3        1 OLM      0.074600
      7 O1          5.2600    2.5610    4.7670 o         1 OLM     -0.820300
      8 C20         4.8760    0.3410   -2.9720 c3        1 OLM     -0.091100
      9 C19         5.1610    0.9200   -1.6100 c3        1 OLM     -0.084400
     10 C15         4.2460    2.2470    0.2750 cc        1 OLM      0.349800
     11 N6          4.7500    3.4840    0.5010 nd        1 OLM     -0.672000
     12 C16         4.8920    3.6070    1.8860 cd        1 OLM      0.258600
     13 C22         5.4340    4.8450    2.5450 c3        1 OLM      0.160500
     14 C23         4.4090    5.3770    3.5490 c3        1 OLM     -0.097600
     15 C24         5.7720    5.9400    1.5340 c3        1 OLM     -0.097600
     16 C17         4.4640    2.4130    2.5250 cc        1 OLM     -0.211200
     17 C21         4.4140    2.0380    3.9920 c         1 OLM      0.939200
     18 N1          4.0610    1.5550    1.4920 na        1 OLM     -0.179900
     19 C7          1.2100    0.7080    2.4800 ca        1 OLM     -0.114000
     20 C6         -0.1750    0.6100    2.3770 ca        1 OLM     -0.136500
     21 C5         -0.7590   -0.0640    1.2940 cp        1 OLM     -0.099000
     22 C8         -2.2190   -0.1210    1.1660 cp        1 OLM      0.003000
     23 C9         -2.8810    1.0080    0.6590 ca        1 OLM     -0.122000
     24 C10        -4.2630    1.0120    0.5010 ca        1 OLM     -0.114000
     25 C11        -5.0080   -0.1150    0.8470 ca        1 OLM     -0.144000
     26 C12        -4.3690   -1.2420    1.3560 ca        1 OLM     -0.088000
     27 C13        -2.9740   -1.2530    1.5230 ca        1 OLM     -0.130500
     28 C14        -2.3650   -2.4570    2.0690 cc        1 OLM      0.448000
     29 N5         -1.1360   -2.5480    2.7540 na        1 OLM     -0.156400
     30 N4         -0.9500   -3.8230    3.1090 nc        1 OLM     -0.198800
     31 N3         -1.9680   -4.4960    2.6990 nd        1 OLM     -0.068000
     32 N2         -2.8570   -3.7440    2.0670 nd        1 OLM     -0.392000
     33 H1         -0.3880   -1.1710   -0.5350 ha        1 OLM      0.135000
     34 H2          2.0850   -0.9940   -0.3540 ha        1 OLM      0.175000
     35 H3          6.4850    3.8390    3.8390 ho        1 OLM      0.450000
     36 H5          3.7950   -0.1340    2.6770 h1        1 OLM      0.084700
     37 H6          4.0130   -0.4300    0.8660 h1        1 OLM      0.084700
     38 H7          5.7720   -0.2030   -3.3570 hc        1 OLM      0.026033
     39 H8          4.6160    1.1500   -3.6970 hc        1 OLM      0.026033
     40 H9          4.0210   -0.3760   -2.9270 hc        1 OLM      0.026033
     41 H10         6.0330    1.6230   -1.6690 hc        1 OLM      0.049700
     42 H11         5.4470    0.0980   -0.9010 hc        1 OLM      0.049700
     43 H12         3.0780    0.9650   -0.9940 hc        1 OLM      0.049700
     44 H13         3.6740    2.4890   -1.7710 hc        1 OLM      0.049700
     45 H14         3.4580    5.6320    3.0280 hc        1 OLM      0.037200
     46 H15         4.8140    6.2900    4.0460 hc        1 OLM      0.037200
     47 H16         4.2110    4.6000    4.3290 hc        1 OLM      0.037200
     48 H17         6.5460    5.5770    0.8170 hc        1 OLM      0.037200
     49 H18         4.8560    6.2340    0.9730 hc        1 OLM      0.037200
     50 H19         6.1760    6.8290    2.0750 hc        1 OLM      0.037200
     51 H20         1.6900    1.2220    3.3420 ha        1 OLM      0.175000
     52 H21        -0.8140    1.0730    3.1430 ha        1 OLM      0.135000
     53 H22        -2.2890    1.8950    0.3870 ha        1 OLM      0.149000
     54 H23        -4.7660    1.9060    0.1020 ha        1 OLM      0.133000
     55 H24        -6.1000   -0.1160    0.7210 ha        1 OLM      0.133000
     56 H25        -4.9620   -2.1290    1.6300 ha        1 OLM      0.154000
     57 H26        -0.4650   -1.8260    2.9250 hn        1 OLM      0.357700
     58 C18         3.9560    1.6630   -1.0650 c3        1 OLM     -0.091700
@<TRIPOS>BOND
     1    1    2 ar  
     2    1   21 ar  
     3    1   33 1   
     4    2    4 ar  
     5    2   34 1   
     6    3   13 1   
     7    3   35 1   
     8    4    6 1   
     9    4   19 ar  
    10    5   17 1   
    11    6   18 1   
    12    6   36 1   
    13    6   37 1   
    14    7   17 1   
    15    8    9 1   
    16    8   38 1   
    17    8   39 1   
    18    8   40 1   
    19    9   41 1   
    20    9   42 1   
    21    9   58 1   
    22   10   11 2   
    23   10   18 1   
    24   10   58 1   
    25   11   12 1   
    26   12   13 1   
    27   12   16 2   
    28   13   14 1   
    29   13   15 1   
    30   14   45 1   
    31   14   46 1   
    32   14   47 1   
    33   15   48 1   
    34   15   49 1   
    35   15   50 1   
    36   16   17 1   
    37   16   18 1   
    38   19   20 ar  
    39   19   51 1   
    40   20   21 ar  
    41   20   52 1   
    42   21   22 1   
    43   22   23 ar  
    44   22   27 ar  
    45   23   24 ar  
    46   23   53 1   
    47   24   25 ar  
    48   24   54 1   
    49   25   26 ar  
    50   25   55 1   
    51   26   27 ar  
    52   26   56 1   
    53   27   28 1   
    54   28   29 1   
    55   28   32 2   
    56   29   30 1   
    57   29   57 1   
    58   30   31 2   
    59   31   32 1   
    60   43   58 1   
    61   44   58 1   
@<TRIPOS>SUBSTRUCTURE
     1 OLM         1 TEMP              0 ****  ****    0 ROOT
