@<TRIPOS>MOLECULE
molecule
   58    61     1     0     0
SMALL
bcc


@<TRIPOS>ATOM
      1 C4           0.0000     0.0000     0.0000 ca         1 OLM      -0.086500
      2 C3           1.3790     0.0000     0.0000 ca         1 OLM      -0.116500
      3 O3           6.1440     4.1310     3.6360 oh         1 OLM      -0.555800
      4 C2           2.0740     0.0000     1.1960 ca         1 OLM      -0.075300
      5 O2           3.8230     0.5060     4.0150 o          1 OLM      -0.826300
      6 C1           3.5810     0.0000     1.1900 c3         1 OLM       0.085600
      7 O1           4.4420     2.5630     4.5860 o          1 OLM      -0.826300
      8 C20          5.3280     0.6110    -3.2660 c3         1 OLM      -0.095100
      9 C19          5.4890     1.0610    -1.8120 c3         1 OLM      -0.084400
     10 C15          4.3380     2.1320     0.1050 cc         1 OLM       0.348800
     11 N6           4.7530     3.3120     0.4930 nd         1 OLM      -0.721000
     12 C16          4.7730     3.3660     1.8250 cd         1 OLM       0.303600
     13 C22          5.1890     4.5490     2.6590 c3         1 OLM       0.163500
     14 C23          3.9630     5.1350     3.3620 c3         1 OLM      -0.109600
     15 C24          5.8170     5.6140     1.7570 c3         1 OLM      -0.109600
     16 C17          4.3480     2.1560     2.2970 cc         1 OLM      -0.194200
     17 C21          4.2100     1.7600     3.7020 c          1 OLM       0.911200
     18 N1           4.0700     1.3820     1.1880 na         1 OLM      -0.148900
     19 C7           1.3910    -0.0000     2.3990 ca         1 OLM      -0.116500
     20 C6           0.0110    -0.0020     2.4110 ca         1 OLM      -0.086500
     21 C5          -0.6940    -0.0010     1.2090 cp         1 OLM      -0.096000
     22 C8          -2.1770     0.0060     1.2160 cp         1 OLM       0.051000
     23 C9          -2.8760     0.9330     0.4480 ca         1 OLM      -0.125000
     24 C10         -4.2560     0.9350     0.4570 ca         1 OLM      -0.110000
     25 C11         -4.9540     0.0200     1.2280 ca         1 OLM      -0.147000
     26 C12         -4.2780    -0.9060     1.9950 ca         1 OLM      -0.114000
     27 C13         -2.8830    -0.9280     1.9920 ca         1 OLM      -0.148500
     28 C14         -2.1540    -1.9220     2.8070 cc         1 OLM       0.475000
     29 N5          -2.7040    -2.8760     3.6000 na         1 OLM      -0.198400
     30 N4          -1.6140    -3.5660     4.1580 nc         1 OLM      -0.230800
     31 N3          -0.5450    -3.0140     3.6940 nd         1 OLM       0.005000
     32 N2          -0.8460    -2.0530     2.8970 nd         1 OLM      -0.380000
     33 H1          -0.5430     0.0000    -0.9380 ha         1 OLM       0.119500
     34 H2           1.9200     0.0000    -0.9390 ha         1 OLM       0.168000
     35 H3           6.7740     4.8190     3.7750 ho         1 OLM       0.368000
     36 H5           3.9450    -0.5110     2.0730 h1         1 OLM       0.082200
     37 H6           3.9380    -0.5110     0.3040 h1         1 OLM       0.082200
     38 H7           4.7740    -0.3200    -3.2970 hc         1 OLM       0.025700
     39 H8           4.7910     1.3700    -3.8220 hc         1 OLM       0.025700
     40 H9           6.3060     0.4630    -3.7080 hc         1 OLM       0.025700
     41 H10          5.7290     0.2040    -1.1940 hc         1 OLM       0.049700
     42 H11          6.2870     1.7900    -1.7460 hc         1 OLM       0.049700
     43 H12          3.3820     0.9610    -1.3930 hc         1 OLM       0.047700
     44 H13          3.9410     2.5460    -1.9450 hc         1 OLM       0.047700
     45 H14          3.9230     4.7700     4.3820 hc         1 OLM       0.036533
     46 H15          4.0310     6.2160     3.3680 hc         1 OLM       0.036533
     47 H16          3.0660     4.8330     2.8350 hc         1 OLM       0.036533
     48 H17          5.0820     5.9580     1.0390 hc         1 OLM       0.036533
     49 H18          6.1500     6.4490     2.3620 hc         1 OLM       0.036533
     50 H19          6.6630     5.1890     1.2310 hc         1 OLM       0.036533
     51 H20          1.9400    -0.0010     3.3330 ha         1 OLM       0.168000
     52 H21         -0.5240    -0.0020     3.3540 ha         1 OLM       0.119500
     53 H22         -2.3370     1.6520    -0.1570 ha         1 OLM       0.149000
     54 H23         -4.7970     1.6580    -0.1410 ha         1 OLM       0.128000
     55 H24         -6.0370     0.0320     1.2290 ha         1 OLM       0.126000
     56 H25         -4.8300    -1.6210     2.5930 ha         1 OLM       0.115000
     57 H26         -3.6770    -3.0520     3.7530 hn         1 OLM       0.327700
     58 C18          4.1810     1.6900    -1.3260 c3         1 OLM      -0.084700
@<TRIPOS>BOND
     1    14    13 1
     2     7    17 1
     3     5    17 1
     4    17    16 1
     5    13    15 1
     6    13     3 1
     7    13    12 1
     8    16    12 2
     9    16    18 1
    10    12    11 1
    11    30    31 2
    12    30    29 1
    13    31    32 1
    14    18     6 1
    15    18    10 1
    16     6     4 1
    17    29    28 1
    18    11    10 2
    19    10    58 1
    20     4     2 ar
    21     4    19 ar
    22    32    28 2
    23     2     1 ar
    24    28    27 1
    25    19    20 ar
    26     1    21 ar
    27    58     9 1
    28    20    21 ar
    29    21    22 1
    30    27    22 ar
    31    27    26 ar
    32    22    23 ar
    33     9     8 1
    34    26    25 ar
    35    23    24 ar
    36    25    24 ar
    37     1    33 1
    38     2    34 1
    39     3    35 1
    40     6    36 1
    41     6    37 1
    42     8    38 1
    43     8    39 1
    44     8    40 1
    45     9    41 1
    46     9    42 1
    47    58    43 1
    48    58    44 1
    49    14    45 1
    50    14    46 1
    51    14    47 1
    52    15    48 1
    53    15    49 1
    54    15    50 1
    55    19    51 1
    56    20    52 1
    57    23    53 1
    58    24    54 1
    59    25    55 1
    60    26    56 1
    61    29    57 1
@<TRIPOS>SUBSTRUCTURE
     1 OLM         1 TEMP              0 ****  ****    0 ROOT
