@<TRIPOS>MOLECULE
molecule
   30    29     1     0     0
SMALL
bcc


@<TRIPOS>ATOM
      1 CA           1.5070     0.0000     0.0000 c3         1 OLN       0.007700
      2 C            0.0000     0.0000     0.0000 c          1 OLN       0.883600
      3 O           -0.6710     1.1610    -0.0020 o          1 OLN      -0.820800
      4 OXT         -0.6040    -1.0470     0.0000 o          1 OLN      -0.820800
      5 CB           2.0170     0.0000     1.4420 c3         1 OLN      -0.072400
      6 CG           3.5470     0.0020     1.4420 c3         1 OLN      -0.107400
      7 CD           4.0560     0.0020     2.8840 c3         1 OLN       0.098000
      8 NE           5.5210     0.0030     2.8850 ns         1 OLN      -0.525900
      9 CZ           6.1950     0.0030     4.0520 c          1 OLN       0.563100
     10 O2           5.5870     0.0040     5.1040 o          1 OLN      -0.501100
     11 NH2          7.5430     0.0040     4.0530 nz         1 OLN      -0.672400
     12 N1           1.9950     1.1940    -0.6910 ns         1 OLN      -0.554900
     13 C1           2.2200     1.1610    -2.0190 c          1 OLN       0.654100
     14 O1           2.0180     0.1410    -2.6420 o          1 OLN      -0.615100
     15 C2           2.7210     2.3900    -2.7310 c3         1 OLN      -0.172100
     16 HA           1.8680    -0.8850    -0.5100 h1         1 OLN       0.074700
     17 HB1          1.6570    -0.8850     1.9530 hc         1 OLN       0.062700
     18 HB2          1.6550     0.8840     1.9530 hc         1 OLN       0.062700
     19 HG1          3.9090    -0.8820     0.9310 hc         1 OLN       0.049700
     20 HG2          3.9070     0.8870     0.9310 hc         1 OLN       0.049700
     21 HD1          3.6940     0.8860     3.3950 h1         1 OLN       0.080200
     22 HD2          3.6960    -0.8830     3.3940 h1         1 OLN       0.080200
     23 HNE          6.0220     0.0000     2.0180 hn         1 OLN       0.329500
     24 HH21         7.8760     0.8230     3.5820 hn         1 OLN       0.473467
     25 HH22         7.8760     0.0030     4.9960 hn         1 OLN       0.473467
     26 HN1          2.1350     2.0440    -0.1820 hn         1 OLN       0.298500
     27 H21          3.7770     2.5220    -2.5230 hc         1 OLN       0.049033
     28 H22          2.1740     3.2580    -2.3830 hc         1 OLN       0.049033
     29 H23          2.5750     2.2750    -3.7980 hc         1 OLN       0.049033
     30 HH23         7.8770    -0.8140     3.5830 hn         1 OLN       0.473467
@<TRIPOS>BOND
     1     1     2 1
     2     1     5 1
     3     1    12 1
     4     1    16 1
     5     2     3 1
     6     2     4 1
     7     5     6 1
     8     5    17 1
     9     5    18 1
    10     6     7 1
    11     6    19 1
    12     6    20 1
    13     7     8 1
    14     7    21 1
    15     7    22 1
    16     8     9 1
    17     8    23 1
    18     9    10 2
    19     9    11 1
    20    11    24 1
    21    11    25 1
    22    12    13 1
    23    12    26 1
    24    13    14 2
    25    13    15 1
    26    15    27 1
    27    15    28 1
    28    15    29 1
    29    30    11 1
@<TRIPOS>SUBSTRUCTURE
     1 OLN         1 TEMP              0 ****  ****    0 ROOT
