@<TRIPOS>MOLECULE
molecule
   40    42     1     0     0
SMALL
bcc


@<TRIPOS>ATOM
      1 N            0.0000     0.0000     0.0000 na         1 OLO      -0.258000
      2 C            1.3640     0.0000     0.0000 cc         1 OLO       0.393700
      3 N1           1.8080     0.0000     1.2230 nd         1 OLO      -0.575100
      4 C3A          0.7590    -0.0010     2.0840 ca         1 OLO      -0.259200
      5 C7A         -0.4120     0.0040     1.3080 ca         1 OLO       0.516800
      6 C1           0.6320    -0.0030     3.4830 ca         1 OLO       0.819200
      7 N2          -0.5870    -0.0030     4.0090 nb         1 OLO      -0.887000
      8 C2          -1.6670    -0.0040     3.2400 ca         1 OLO       1.002900
      9 N3          -1.5930    -0.0020     1.9190 nb         1 OLO      -0.863000
     10 C3          -0.8660     0.0020    -1.1820 c3         1 OLO       0.045600
     11 N4          -2.9160    -0.0040     3.8380 nu         1 OLO      -0.893900
     12 C4          -3.0270    -0.0040     5.2990 c3         1 OLO       0.254800
     13 C5          -4.5040    -0.0050     5.6980 c3         1 OLO       0.118400
     14 O           -5.1390    -1.1700     5.1710 oh         1 OLO      -0.606800
     15 N5           1.7530    -0.0030     4.2940 nu         1 OLO      -0.890900
     16 C6           1.6020    -0.0040     5.7510 c3         1 OLO       0.286100
     17 C7           3.5880     1.1940     6.6930 ca         1 OLO      -0.110000
     18 C8           4.8370     1.1940     7.2860 ca         1 OLO      -0.131500
     19 C9           5.4620    -0.0010     7.5810 ca         1 OLO      -0.120000
     20 C10          4.8370    -1.1990     7.2860 ca         1 OLO      -0.131500
     21 C11          3.5860    -1.2000     6.6970 ca         1 OLO      -0.110000
     22 C12          2.9640    -0.0040     6.3960 ca         1 OLO      -0.119300
     23 H            1.9860    -0.0000    -0.8870 h5         1 OLO       0.073800
     24 H31         -1.4940     0.8850    -1.1680 h1         1 OLO       0.053033
     25 H32         -0.2560     0.0060    -2.0770 h1         1 OLO       0.053033
     26 H33         -1.4900    -0.8840    -1.1740 h1         1 OLO       0.053033
     27 HN4         -3.7410     0.0310     3.2740 hn         1 OLO       0.464800
     28 H41         -2.5450     0.8800     5.6980 h1         1 OLO       0.056700
     29 H42         -2.5450    -0.8890     5.6970 h1         1 OLO       0.056700
     30 H51         -4.5860    -0.0060     6.7780 h1         1 OLO       0.029200
     31 H52         -4.9860     0.8800     5.3000 h1         1 OLO       0.029200
     32 HO          -5.9750    -1.2900     5.5910 ho         1 OLO       0.404000
     33 HN5          2.6660    -0.0290     3.8860 hn         1 OLO       0.468800
     34 H61          1.0570    -0.8890     6.0570 h1         1 OLO       0.055700
     35 H62          1.0560     0.8800     6.0580 h1         1 OLO       0.055700
     36 H8           5.3260     2.1330     7.5180 ha         1 OLO       0.131500
     37 H9           6.4410    -0.0010     8.0440 ha         1 OLO       0.130000
     38 H10          5.3260    -2.1370     7.5190 ha         1 OLO       0.131500
     39 H11          3.0970    -2.1380     6.4650 ha         1 OLO       0.135500
     40 H7           3.0980     2.1320     6.4620 ha         1 OLO       0.135500
@<TRIPOS>BOND
     1     1     2 1
     2     1     5 1
     3     1    10 1
     4     2     3 2
     5     2    23 1
     6     3     4 1
     7     4     5 ar
     8     4     6 ar
     9     5     9 ar
    10     6     7 ar
    11     6    15 1
    12     7     8 ar
    13     8     9 ar
    14     8    11 1
    15    10    24 1
    16    10    25 1
    17    10    26 1
    18    11    12 1
    19    11    27 1
    20    12    13 1
    21    12    28 1
    22    12    29 1
    23    13    14 1
    24    13    30 1
    25    13    31 1
    26    14    32 1
    27    15    16 1
    28    15    33 1
    29    16    22 1
    30    16    34 1
    31    16    35 1
    32    17    18 ar
    33    17    22 ar
    34    17    40 1
    35    18    19 ar
    36    18    36 1
    37    19    20 ar
    38    19    37 1
    39    20    21 ar
    40    20    38 1
    41    21    22 ar
    42    21    39 1
@<TRIPOS>SUBSTRUCTURE
     1 OLO         1 TEMP              0 ****  ****    0 ROOT
