@<TRIPOS>MOLECULE
OLP
   43    45     1     0     0
SMALL
bcc


@<TRIPOS>ATOM
      1 CAH         0.2750   -0.1590    0.0800 ca        1 OLP     -0.138000
      2 CAQ         1.6470   -0.3100    0.2750 ca        1 OLP      0.023400
      3 CL          2.6750   -0.4150   -1.0830 cl        1 OLP     -0.116400
      4 CAF         2.1960   -0.3750    1.5570 ca        1 OLP     -0.142000
      5 CAE         1.3440   -0.2900    2.6570 ca        1 OLP     -0.121000
      6 CAG        -0.0280   -0.1420    2.4900 ca        1 OLP     -0.122000
      7 CAR        -0.5900   -0.0720    1.1930 ca        1 OLP      0.176400
      8 N6         -1.9920   -0.0300    1.0830 ne        1 OLP     -0.585100
      9 C6         -2.6380    0.7760    0.2850 cd        1 OLP      0.656300
     10 N1         -2.0380    1.7630   -0.5500 nd        1 OLP     -0.794000
     11 C5         -4.1080    0.7080    0.2310 cd        1 OLP      0.218000
     12 N7         -5.0110   -0.1600    0.8410 nd        1 OLP     -0.582000
     13 C8         -6.2280    0.2320    0.4160 cc        1 OLP      0.387400
     14 N9         -6.1740    1.3250   -0.4810 na        1 OLP     -0.211900
     15 CAW        -7.2770    2.0680   -1.0470 c3        1 OLP      0.057000
     16 CAB        -8.5560    1.2360   -1.1550 c3        1 OLP     -0.113100
     17 CAA        -7.5860    3.3600   -0.2860 c3        1 OLP     -0.113100
     18 C4         -4.8140    1.6490   -0.5860 cc        1 OLP      0.003000
     19 N3         -4.1940    2.6880   -1.2770 na        1 OLP     -0.690600
     20 C2         -2.7530    2.5840   -1.3030 cc        1 OLP      0.817100
     21 N2         -2.1190    3.4480   -2.2440 nh        1 OLP     -0.786200
     22 CAK        -0.6770    3.5860   -2.1530 c3        1 OLP      0.186800
     23 CAJ        -0.1330    4.6020   -3.1660 c3        1 OLP      0.117400
     24 OAC        -0.6900    5.8670   -2.8450 oh        1 OLP     -0.614800
     25 HAH        -0.1310   -0.1150   -0.9430 ha        1 OLP      0.152000
     26 HAF         3.2800   -0.4940    1.6980 ha        1 OLP      0.142000
     27 HAE         1.7650   -0.3410    3.6720 ha        1 OLP      0.133000
     28 HAG        -0.6810   -0.0830    3.3750 ha        1 OLP      0.147000
     29 H8         -7.1800   -0.2330    0.6930 h5        1 OLP      0.067100
     30 HAW        -6.9600    2.3530   -2.0990 h1        1 OLP      0.052700
     31 HAB1       -8.3690    0.2720   -1.6860 hc        1 OLP      0.053033
     32 HAB2       -8.9750    1.0160   -0.1440 hc        1 OLP      0.053033
     33 HAB3       -9.3100    1.8230   -1.7320 hc        1 OLP      0.053033
     34 HAA1       -8.3920    3.9110   -0.8290 hc        1 OLP      0.053033
     35 HAA2       -7.9380    3.1390    0.7500 hc        1 OLP      0.053033
     36 HAA3       -6.6830    4.0130   -0.2240 hc        1 OLP      0.053033
     37 H3         -4.6580    3.0420   -2.0860 hn        1 OLP      0.431800
     38 H2         -2.5690    4.3420   -2.3290 hn        1 OLP      0.414800
     39 HAK1       -0.2090    2.5850   -2.3760 h1        1 OLP      0.072200
     40 HAK2       -0.3530    3.9050   -1.1210 h1        1 OLP      0.072200
     41 HAJ1        0.9850    4.6310   -3.0700 h1        1 OLP      0.038700
     42 HAJ2       -0.4080    4.3210   -4.2170 h1        1 OLP      0.038700
     43 HAC        -0.2770    6.5100   -3.4320 ho        1 OLP      0.409000
@<TRIPOS>BOND
     1    1    2 ar
     2    1    7 ar
     3    1   25 1
     4    2    3 1
     5    2    4 ar
     6    4    5 ar
     7    4   26 1
     8    5    6 ar
     9    5   27 1
    10    6    7 ar
    11    6   28 1
    12    7    8 1
    13    8    9 2
    14    9   10 1
    15    9   11 1
    16   10   20 2
    17   11   12 1
    18   11   18 2
    19   12   13 2
    20   13   14 1
    21   13   29 1
    22   14   15 1
    23   14   18 1
    24   15   16 1
    25   15   17 1
    26   15   30 1
    27   16   31 1
    28   16   32 1
    29   16   33 1
    30   17   34 1
    31   17   35 1
    32   17   36 1
    33   18   19 1
    34   19   20 1
    35   19   37 1
    36   20   21 1
    37   21   22 1
    38   21   38 1
    39   22   23 1
    40   22   39 1
    41   22   40 1
    42   23   24 1
    43   23   41 1
    44   23   42 1
    45   24   43 1
@<TRIPOS>SUBSTRUCTURE
     1 OLP         1 TEMP              0 ****  ****    0 ROOT
