@<TRIPOS>MOLECULE
molecule
   22    24     1     0     0
SMALL
bcc


@<TRIPOS>ATOM
      1 O6'          0.0000     0.0000     0.0000 o          1 OLU      -0.483100
      2 C4'          1.2150     0.0000     0.0000 c          1 OLU       0.720500
      3 N3'          1.9150     0.0000     1.1040 ne         1 OLU      -0.733100
      4 C2'          3.2390     0.0010     1.1500 cf         1 OLU       0.614900
      5 S1'          3.7240     0.0110    -0.5700 ss         1 OLU      -0.260300
      6 C5'          2.0310     0.0020    -1.2870 c3         1 OLU      -0.127300
      7 C2           4.1080     0.0030     2.3410 cd         1 OLU       0.386900
      8 S1           3.6460     0.0010     4.0670 ss         1 OLU      -0.064100
      9 C5           5.2930     0.0040     4.7340 ca         1 OLU      -0.011100
     10 C6           5.8340    -0.0010     5.9960 ca         1 OLU      -0.122000
     11 C4           6.0910     0.0050     3.5600 ca         1 OLU       0.091400
     12 N3           5.4220     0.0040     2.4040 nc         1 OLU      -0.567100
     13 C9           7.4970     0.0080     3.7590 ca         1 OLU      -0.038000
     14 C8           8.0220     0.0100     5.0100 ca         1 OLU      -0.160000
     15 C7           7.2130     0.0080     6.1460 ca         1 OLU       0.143100
     16 O7           7.7690     0.0090     7.3850 oh         1 OLU      -0.513100
     17 H5'1         1.8550    -0.8980    -1.8640 h1         1 OLU       0.117200
     18 H5'2         1.8460     0.8970    -1.8670 h1         1 OLU       0.117200
     19 H6           5.1900    -0.0020     6.8670 ha         1 OLU       0.155000
     20 H9           8.1580     0.0090     2.9010 ha         1 OLU       0.153000
     21 H8           9.0990     0.0160     5.1300 ha         1 OLU       0.151000
     22 HO7          7.8460     0.8960     7.6940 ho         1 OLU       0.429000
@<TRIPOS>BOND
     1     1     2 2
     2     2     3 1
     3     2     6 1
     4     3     4 2
     5     4     5 1
     6     4     7 1
     7     5     6 1
     8     6    17 1
     9     6    18 1
    10     7     8 1
    11     7    12 2
    12     8     9 1
    13     9    10 ar
    14     9    11 ar
    15    10    15 ar
    16    10    19 1
    17    11    12 1
    18    11    13 ar
    19    13    14 ar
    20    13    20 1
    21    14    15 ar
    22    14    21 1
    23    15    16 1
    24    16    22 1
@<TRIPOS>SUBSTRUCTURE
     1 OLU         1 TEMP              0 ****  ****    0 ROOT
