@<TRIPOS>MOLECULE
OLW
   39    41     1     0     0
SMALL
bcc


@<TRIPOS>ATOM
      1 N01          0.0000     0.0000     0.0000 nc         1 OLW      -0.563000
      2 C02          1.3050     0.0000     0.0000 cd         1 OLW       0.242400
      3 N03          1.7370     0.0000     1.2900 na         1 OLW       0.252300
      4 C04          0.6210     0.0010     2.0870 cd         1 OLW      -0.433600
      5 C05         -0.4450     0.0010     1.2660 cc         1 OLW       0.317200
      6 C1'          8.2340    -2.2830    -3.7450 ca         1 OLW      -0.087300
      7 N11          3.3220    -0.0010     3.0170 nb         1 OLW      -0.619000
      8 C12          3.0640    -0.0010     1.7190 ca         1 OLW       0.545500
      9 N13          4.0340    -0.0020     0.8190 nb         1 OLW      -0.635000
     10 C14          5.3030    -0.0040     1.1910 ca         1 OLW       0.482600
     11 C15          5.6110    -0.0030     2.5440 ca         1 OLW      -0.367600
     12 C16          4.5700    -0.0020     3.4590 ca         1 OLW       0.441200
     13 C17          6.4010    -0.0060     0.1600 c3         1 OLW      -0.120700
     14 C18          6.2060    -1.1880    -0.7910 c3         1 OLW       0.029800
     15 N19          7.2760    -1.1900    -1.7970 n7         1 OLW      -0.536200
     16 C2'          9.4120    -2.9550    -3.4930 ca         1 OLW      -0.084000
     17 C20          7.1200    -2.3140    -2.7300 c3         1 OLW       0.117100
     18 C3'         10.4440    -2.9240    -4.4350 ca         1 OLW       0.040000
     19 C4'         10.2730    -2.2130    -5.6240 ca         1 OLW      -0.083000
     20 C5'          9.0900    -1.5460    -5.8630 ca         1 OLW      -0.085000
     21 C6'          8.0740    -1.5760    -4.9230 ca         1 OLW      -0.059000
     22 C7'         11.6690    -3.6190    -4.1810 cg         1 OLW       0.229800
     23 N8'         12.6360    -4.1750    -3.9610 n1         1 OLW      -0.380800
     24 H02          2.1790     0.1170    -0.6280 h5         1 OLW       0.039100
     25 H04          0.5000    -0.1410     3.1540 h4         1 OLW       0.166000
     26 H05         -1.3810    -0.0530     1.8090 h4         1 OLW       0.008100
     27 H15          6.4630    -0.1810     3.1880 ha         1 OLW       0.141000
     28 H16          4.9050     0.2600     4.4550 h4         1 OLW      -0.005900
     29 H17          6.3870     0.8220    -0.5390 hc         1 OLW       0.071200
     30 H17A         7.2550    -0.6200     0.4220 hc         1 OLW       0.071200
     31 H18          5.6470    -0.6940    -1.5770 h1         1 OLW       0.047700
     32 H18A         5.6220    -1.9420    -0.2770 h1         1 OLW       0.047700
     33 HN19         8.1670    -1.4760    -1.4410 hn         1 OLW       0.234800
     34 H2'          9.1380    -3.4440    -2.5660 ha         1 OLW       0.129000
     35 H20          6.2090    -1.8100    -3.0290 h1         1 OLW       0.030700
     36 H20A         6.5640    -3.2280    -2.5610 h1         1 OLW       0.030700
     37 H4'         11.1620    -2.3450    -6.2290 ha         1 OLW       0.118000
     38 H5'          9.1200    -0.9300    -6.7530 ha         1 OLW       0.111000
     39 H6'          7.2790    -0.8450    -5.0060 ha         1 OLW       0.114000
@<TRIPOS>BOND
     1     1     2 2   
     2     1     5 1   
     3     2     3 1   
     4     2    24 1   
     5     3     4 1   
     6     3     8 1   
     7     4     5 2   
     8     4    25 1   
     9     5    26 1   
    10     6    16 ar  
    11     6    17 1   
    12     6    21 ar  
    13     7     8 ar  
    14     7    12 ar  
    15     8     9 ar  
    16     9    10 ar  
    17    10    11 ar  
    18    10    13 1   
    19    11    12 ar  
    20    11    27 1   
    21    12    28 1   
    22    13    14 1   
    23    13    29 1   
    24    13    30 1   
    25    14    15 1   
    26    14    31 1   
    27    14    32 1   
    28    15    17 1   
    29    15    33 1   
    30    16    18 ar  
    31    16    34 1   
    32    17    35 1   
    33    17    36 1   
    34    18    19 ar  
    35    18    22 1   
    36    19    20 ar  
    37    19    37 1   
    38    20    21 ar  
    39    20    38 1   
    40    21    39 1   
    41    22    23 3   
@<TRIPOS>SUBSTRUCTURE
     1 OLW         1 TEMP              0 ****  ****    0 ROOT
