@<TRIPOS>MOLECULE
molecule
   57    60     1     0     0
SMALL
bcc


@<TRIPOS>ATOM
      1 C15          0.0000     0.0000     0.0000 ca         1 OM1      -0.110000
      2 C16          1.3830     0.0000     0.0000 ca         1 OM1      -0.092000
      3 C14         -0.6940     0.0010     1.1920 ca         1 OM1      -0.100000
      4 C17          2.0800     0.0000     1.1940 ca         1 OM1      -0.095000
      5 C23          2.1110    -3.1310     7.0670 ca         1 OM1      -0.110000
      6 C6          -4.9710    -1.1930     4.5610 ca         1 OM1      -0.072500
      7 C10         -4.9710     1.2030     4.5600 ca         1 OM1      -0.072500
      8 C24          2.1410    -4.4160     7.5860 ca         1 OM1      -0.140000
      9 C7          -6.3300    -1.1960     4.3110 ca         1 OM1      -0.192000
     10 C9          -6.3290     1.2060     4.3110 ca         1 OM1      -0.192000
     11 C13          0.0040     0.0000     2.4010 ca         1 OM1      -0.144600
     12 C30          3.9030    -3.6910     5.5660 ca         1 OM1      -0.048600
     13 C5          -4.2920     0.0050     4.6840 ca         1 OM1      -0.173300
     14 C18          1.4000     0.0000     2.3940 ca         1 OM1      -0.100300
     15 C22          2.9820    -2.7630     6.0660 ca         1 OM1      -0.172300
     16 C25          3.0460    -5.3450     7.1030 ca         1 OM1       0.070100
     17 C29          3.9330    -4.9880     6.0890 ca         1 OM1       0.077100
     18 C8          -7.0130     0.0050     4.1860 ca         1 OM1       0.158100
     19 C2          -0.7330     0.0030     3.6830 c          1 OM1       0.675700
     20 C27          4.0240    -7.2020     6.3440 c3         1 OM1       0.326200
     21 C4          -2.8100     0.0040     4.9570 c3         1 OM1       0.164300
     22 C19          2.1620     0.0000     3.6950 c3         1 OM1       0.155100
     23 C21          2.9430    -1.3640     5.5070 c3         1 OM1       0.178100
     24 N3          -2.0800     0.0030     3.6860 ns         1 OM1      -0.558900
     25 N20          2.2000    -1.3640     4.2390 ny         1 OM1      -0.723000
     26 O33          4.4860    -3.4660     3.2020 o          1 OM1      -0.809300
     27 O1          -0.1220     0.0030     4.7350 o          1 OM1      -0.667100
     28 O32          5.9230    -2.8340     4.7730 o          1 OM1      -0.809300
     29 O26          3.2710    -6.6480     7.4400 os         1 OM1      -0.329900
     30 O28          4.7120    -6.0650     5.7920 os         1 OM1      -0.288900
     31 O11         -8.3500     0.0060     3.9390 os         1 OM1      -0.323900
     32 H15         -0.5400     0.0000    -0.9390 ha         1 OM1       0.146000
     33 H16          1.9220    -0.0000    -0.9400 ha         1 OM1       0.153000
     34 H14         -1.7770     0.0010     1.1900 ha         1 OM1       0.136000
     35 H17          3.1640    -0.0000     1.1880 ha         1 OM1       0.162000
     36 H23          1.3990    -2.4110     7.4530 ha         1 OM1       0.129000
     37 H24          1.4520    -4.6950     8.3740 ha         1 OM1       0.141000
     38 H6          -4.4380    -2.1310     4.6590 ha         1 OM1       0.137500
     39 H7          -6.8620    -2.1340     4.2150 ha         1 OM1       0.146000
     40 H10         -4.4360     2.1400     4.6570 ha         1 OM1       0.137500
     41 H9          -6.8600     2.1450     4.2130 ha         1 OM1       0.146000
     42 H41C        -2.5470     0.8880     5.5240 h1         1 OM1       0.062200
     43 H42C        -2.5480    -0.8810     5.5240 h1         1 OM1       0.062200
     44 H191         1.6700     0.6580     4.4020 hx         1 OM1       0.114200
     45 H192         3.1730     0.3480     3.5220 hx         1 OM1       0.114200
     46 H211         2.4510    -0.7070     6.2140 hx         1 OM1       0.104700
     47 H212         3.9540    -1.0160     5.3330 hx         1 OM1       0.104700
     48 H3          -2.5820     0.0220     2.8210 hn         1 OM1       0.327500
     49 H271         3.3580    -7.6360     5.6080 h2         1 OM1       0.069700
     50 H272         4.7340    -7.9360     6.7050 h2         1 OM1       0.069700
     51 H121       -10.0430     1.1370     3.6270 h1         1 OM1       0.044700
     52 H122        -8.5400     1.8320     3.0040 h1         1 OM1       0.044700
     53 H123        -8.8610     1.8330     4.7440 h1         1 OM1       0.044700
     54 H20          1.2650    -1.6860     4.4000 hn         1 OM1       0.464800
     55 H220         2.6540    -1.9710     3.5860 hn         1 OM1       0.464800
     56 C31          4.8360    -3.3020     4.4930 c          1 OM1       0.863200
     57 C12         -8.9870     1.2790     3.8210 c3         1 OM1       0.126700
@<TRIPOS>BOND
     1     1     2 ar
     2     1     3 ar
     3     2     4 ar
     4     3    11 ar
     5     4    14 ar
     6     5     8 ar
     7     5    15 ar
     8     6     9 ar
     9     6    13 ar
    10     7    10 ar
    11     7    13 ar
    12     8    16 ar
    13     9    18 ar
    14    10    18 ar
    15    11    14 ar
    16    11    19 1
    17    12    15 ar
    18    12    17 ar
    19    12    56 1
    20    13    21 1
    21    14    22 1
    22    15    23 1
    23    16    17 ar
    24    16    29 1
    25    17    30 1
    26    18    31 1
    27    19    24 1
    28    19    27 2
    29    56    26 1
    30    56    28 1
    31    20    29 1
    32    20    30 1
    33    57    31 1
    34    21    24 1
    35    22    25 1
    36    23    25 1
    37     1    32 1
    38     2    33 1
    39     3    34 1
    40     4    35 1
    41     5    36 1
    42     8    37 1
    43     6    38 1
    44     9    39 1
    45     7    40 1
    46    10    41 1
    47    21    42 1
    48    21    43 1
    49    22    44 1
    50    22    45 1
    51    23    46 1
    52    23    47 1
    53    24    48 1
    54    20    49 1
    55    20    50 1
    56    57    51 1
    57    57    52 1
    58    57    53 1
    59    25    54 1
    60    25    55 1
@<TRIPOS>SUBSTRUCTURE
     1 OM1         1 TEMP              0 ****  ****    0 ROOT
