@<TRIPOS>MOLECULE
OM1
   57    60     1     0     0
SMALL
bcc


@<TRIPOS>ATOM
      1 C15          0.0000     0.0000     0.0000 ca         1 OM1      -0.080000
      2 C16          1.3830     0.0000     0.0000 ca         1 OM1      -0.058000
      3 C14         -0.6940     0.0010     1.1920 ca         1 OM1      -0.076000
      4 C17          2.0800     0.0000     1.1940 ca         1 OM1      -0.064000
      5 C23          2.1110    -3.1310     7.0670 ca         1 OM1      -0.088000
      6 C6          -4.9710    -1.1930     4.5610 ca         1 OM1      -0.037500
      7 C10         -4.9710     1.2030     4.5600 ca         1 OM1      -0.037500
      8 C24          2.1410    -4.4160     7.5860 ca         1 OM1      -0.113000
      9 C7          -6.3300    -1.1960     4.3110 ca         1 OM1      -0.176500
     10 C9          -6.3290     1.2060     4.3110 ca         1 OM1      -0.176500
     11 C13          0.0040     0.0000     2.4010 ca         1 OM1      -0.154600
     12 C30          3.9030    -3.6910     5.5660 ca         1 OM1      -0.047600
     13 C5          -4.2920     0.0050     4.6840 ca         1 OM1      -0.189300
     14 C18          1.4000     0.0000     2.3940 ca         1 OM1      -0.094300
     15 C22          2.9820    -2.7630     6.0660 ca         1 OM1      -0.178300
     16 C25          3.0460    -5.3450     7.1030 ca         1 OM1       0.073100
     17 C29          3.9330    -4.9880     6.0890 ca         1 OM1       0.096100
     18 C8          -7.0130     0.0050     4.1860 ca         1 OM1       0.169100
     19 C2          -0.7330     0.0030     3.6830 c          1 OM1       0.601700
     20 C27          4.0240    -7.2020     6.3440 c3         1 OM1       0.424200
     21 C4          -2.8100     0.0040     4.9570 c3         1 OM1       0.115300
     22 C19          2.1620     0.0000     3.6950 c3         1 OM1       0.020100
     23 C21          2.9430    -1.3640     5.5070 c3         1 OM1       0.059100
     24 N3          -2.0800     0.0030     3.6860 ns         1 OM1      -0.156900
     25 N20          2.2000    -1.3640     4.2390 ny         1 OM1      -0.000000
     26 O33          4.4860    -3.4660     3.2020 o          1 OM1      -0.855300
     27 O1          -0.1220     0.0030     4.7350 o          1 OM1      -0.717100
     28 O32          5.9230    -2.8340     4.7730 o          1 OM1      -0.855300
     29 O26          3.2710    -6.6480     7.4400 os         1 OM1      -0.318900
     30 O28          4.7120    -6.0650     5.7920 os         1 OM1      -0.277900
     31 O11         -8.3500     0.0060     3.9390 os         1 OM1      -0.303900
     32 H15         -0.5400     0.0000    -0.9390 ha         1 OM1       0.114000
     33 H16          1.9220    -0.0000    -0.9400 ha         1 OM1       0.118000
     34 H14         -1.7770     0.0010     1.1900 ha         1 OM1       0.109000
     35 H17          3.1640    -0.0000     1.1880 ha         1 OM1       0.131000
     36 H23          1.3990    -2.4110     7.4530 ha         1 OM1       0.103000
     37 H24          1.4520    -4.6950     8.3740 ha         1 OM1       0.111000
     38 H6          -4.4380    -2.1310     4.6590 ha         1 OM1       0.107000
     39 H7          -6.8620    -2.1340     4.2150 ha         1 OM1       0.124500
     40 H10         -4.4360     2.1400     4.6570 ha         1 OM1       0.107000
     41 H9          -6.8600     2.1450     4.2130 ha         1 OM1       0.124500
     42 H41C        -2.5470     0.8880     5.5240 h1         1 OM1       0.032200
     43 H42C        -2.5480    -0.8810     5.5240 h1         1 OM1       0.032200
     44 H191         1.6700     0.6580     4.4020 hx         1 OM1       0.092200
     45 H192         3.1730     0.3480     3.5220 hx         1 OM1       0.092200
     46 H211         2.4510    -0.7070     6.2140 hx         1 OM1       0.077700
     47 H212         3.9540    -1.0160     5.3330 hx         1 OM1       0.077700
     48 H3          -2.5820     0.0220     2.8210 hn         1 OM1       0.188500
     49 H271         3.3580    -7.6360     5.6080 h2         1 OM1       0.012700
     50 H272         4.7340    -7.9360     6.7050 h2         1 OM1       0.012700
     51 H121       -10.0430     1.1370     3.6270 h1         1 OM1       0.000033
     52 H122        -8.5400     1.8320     3.0040 h1         1 OM1       0.000033
     53 H123        -8.8610     1.8330     4.7440 h1         1 OM1       0.000033
     54 H20          1.2650    -1.6860     4.4000 hn         1 OM1       0.267300
     55 H220         2.6540    -1.9710     3.5860 hn         1 OM1       0.267300
     56 C31          4.8360    -3.3020     4.4930 c          1 OM1       0.951200
     57 C12         -8.9870     1.2790     3.8210 c3         1 OM1       0.244700
@<TRIPOS>BOND
     1     1     2 ar  
     2     1     3 ar  
     3     1    32 1   
     4     2     4 ar  
     5     2    33 1   
     6     3    11 ar  
     7     3    34 1   
     8     4    14 ar  
     9     4    35 1   
    10     5     8 ar  
    11     5    15 ar  
    12     5    36 1   
    13     6     9 ar  
    14     6    13 ar  
    15     6    38 1   
    16     7    10 ar  
    17     7    13 ar  
    18     7    40 1   
    19     8    16 ar  
    20     8    37 1   
    21     9    18 ar  
    22     9    39 1   
    23    10    18 ar  
    24    10    41 1   
    25    11    14 ar  
    26    11    19 1   
    27    12    15 ar  
    28    12    17 ar  
    29    12    56 1   
    30    13    21 1   
    31    14    22 1   
    32    15    23 1   
    33    16    17 ar  
    34    16    29 1   
    35    17    30 1   
    36    18    31 1   
    37    19    24 1   
    38    19    27 2   
    39    20    29 1   
    40    20    30 1   
    41    20    49 1   
    42    20    50 1   
    43    21    24 1   
    44    21    42 1   
    45    21    43 1   
    46    22    25 1   
    47    22    44 1   
    48    22    45 1   
    49    23    25 1   
    50    23    46 1   
    51    23    47 1   
    52    24    48 1   
    53    25    54 1   
    54    25    55 1   
    55    26    56 1   
    56    28    56 1   
    57    31    57 1   
    58    51    57 1   
    59    52    57 1   
    60    53    57 1   
@<TRIPOS>SUBSTRUCTURE
     1 OM1         1 TEMP              0 ****  ****    0 ROOT
