@<TRIPOS>MOLECULE
molecule
   55    57     1     0     0
SMALL
bcc


@<TRIPOS>ATOM
      1 C1           0.0000     0.0000     0.0000 ca         1 OM2      -0.109000
      2 C2           1.3840     0.0000     0.0000 ca         1 OM2      -0.111000
      3 C3          -0.6930    -0.0010     1.1930 ca         1 OM2      -0.099000
      4 C4           2.0810     0.0000     1.1950 ca         1 OM2      -0.122000
      5 C5           3.9130    -3.5310     6.1350 ca         1 OM2      -0.122000
      6 C6           3.8770    -4.8020     6.6840 ca         1 OM2      -0.139000
      7 C7           0.0050    -0.0010     2.4010 ca         1 OM2      -0.116600
      8 C8           1.6110    -3.1970     6.7460 ca         1 OM2      -0.043600
      9 C9           1.4000    -0.0010     2.3950 ca         1 OM2      -0.110300
     10 C10          2.7930    -2.7290     6.1610 ca         1 OM2      -0.166300
     11 C11          2.7160    -5.2810     7.2670 ca         1 OM2       0.067100
     12 C12          1.5750    -4.4820     7.3010 ca         1 OM2       0.076100
     13 C13         -0.7310    -0.0020     3.6840 c          1 OM2       0.659700
     14 C15          1.2290    -6.2430     8.6260 c3         1 OM2       0.326200
     15 C17         -2.9530     1.4340     5.4630 c3         1 OM2      -0.110100
     16 C18          2.9740    -2.2300     3.3350 c3         1 OM2       0.086100
     17 C19          2.1630    -0.0020     3.6940 c3         1 OM2       0.158100
     18 C20          2.8400    -1.3470     5.5610 c3         1 OM2       0.176100
     19 C21         -4.1950    -0.6130     4.7500 c3         1 OM2      -0.092400
     20 C22         -2.8080    -0.0030     4.9580 c3         1 OM2       0.102700
     21 N23         -2.0790    -0.0020     3.6880 ns         1 OM2      -0.547900
     22 N24          2.2030    -1.3660     4.2390 nx         1 OM2      -0.637400
     23 O26         -0.1200    -0.0020     4.7350 o          1 OM2      -0.598100
     24 O28          2.4290    -6.4740     7.8650 os         1 OM2      -0.331900
     25 O29          0.5770    -5.1730     7.9180 os         1 OM2      -0.291900
     26 H1          -0.5400    -0.0000    -0.9390 ha         1 OM2       0.145000
     27 H2           1.9230     0.0010    -0.9390 ha         1 OM2       0.143000
     28 H3          -1.7760    -0.0010     1.1920 ha         1 OM2       0.144000
     29 H4           3.1640     0.0000     1.1880 ha         1 OM2       0.134000
     30 H5           4.8260    -3.1650     5.6820 ha         1 OM2       0.121000
     31 H6           4.7630    -5.4250     6.6580 ha         1 OM2       0.140000
     32 H191         1.6710     0.6550     4.4020 hx         1 OM2       0.112200
     33 H192         3.1730     0.3480     3.5200 hx         1 OM2       0.112200
     34 H201         3.8710    -1.0320     5.4610 hx         1 OM2       0.108200
     35 H202         2.3120    -0.6560     6.2070 hx         1 OM2       0.108200
     36 H23         -2.5810     0.0310     2.8230 hn         1 OM2       0.305500
     37 H151         1.4740    -5.9360     9.6360 h2         1 OM2       0.071200
     38 H152         0.6060    -7.1300     8.6310 h2         1 OM2       0.071200
     39 H161        -5.0330    -2.5410     4.2980 hc         1 OM2       0.039700
     40 H162        -3.4660    -2.6020     5.1180 hc         1 OM2       0.039700
     41 H163        -3.5530    -2.1630     3.4060 hc         1 OM2       0.039700
     42 H211        -4.7660    -0.5340     5.6670 hc         1 OM2       0.042700
     43 H212        -4.7080    -0.0820     3.9580 hc         1 OM2       0.042700
     44 H171        -2.4260     1.5410     6.4040 hc         1 OM2       0.041033
     45 H172        -2.5330     2.1170     4.7350 hc         1 OM2       0.041033
     46 H173        -4.0020     1.6610     5.6100 hc         1 OM2       0.041033
     47 H22         -2.2620    -0.5890     5.6880 h1         1 OM2       0.138700
     48 H181         3.9810    -1.8410     3.2360 hx         1 OM2       0.086033
     49 H182         2.4980    -2.2520     2.3620 hx         1 OM2       0.086033
     50 H183         3.0130    -3.2330     3.7410 hx         1 OM2       0.086033
     51 H224         1.2700    -1.7190     4.3220 hn         1 OM2       0.497800
     52 C16         -4.0510    -2.0870     4.3650 c3         1 OM2      -0.095100
     53 O25         -0.4400    -2.4600     5.9180 o          1 OM2      -0.807300
     54 O27          0.2570    -1.4330     7.7580 o          1 OM2      -0.807300
     55 C14          0.4110    -2.3430     6.7770 c          1 OM2       0.868200
@<TRIPOS>BOND
     1     1     2 ar
     2     1     3 ar
     3     2     4 ar
     4     3     7 ar
     5     4     9 ar
     6     5     6 ar
     7     5    10 ar
     8     6    11 ar
     9     7     9 ar
    10     7    13 1
    11     8    10 ar
    12     8    12 ar
    13     8    55 1
    14     9    17 1
    15    10    18 1
    16    11    12 ar
    17    11    24 1
    18    12    25 1
    19    13    21 1
    20    13    23 2
    21    55    53 1
    22    55    54 1
    23    14    24 1
    24    14    25 1
    25    52    19 1
    26    15    20 1
    27    16    22 1
    28    17    22 1
    29    18    22 1
    30    19    20 1
    31    20    21 1
    32     1    26 1
    33     2    27 1
    34     3    28 1
    35     4    29 1
    36     5    30 1
    37     6    31 1
    38    17    32 1
    39    17    33 1
    40    18    34 1
    41    18    35 1
    42    21    36 1
    43    14    37 1
    44    14    38 1
    45    52    39 1
    46    52    40 1
    47    52    41 1
    48    19    42 1
    49    19    43 1
    50    15    44 1
    51    15    45 1
    52    15    46 1
    53    20    47 1
    54    16    48 1
    55    16    49 1
    56    16    50 1
    57    22    51 1
@<TRIPOS>SUBSTRUCTURE
     1 OM2         1 TEMP              0 ****  ****    0 ROOT
