@<TRIPOS>MOLECULE
OM3
   63    56     1     0     0
SMALL
bcc


@<TRIPOS>ATOM
      1 C1          2.8530   -1.6260   -0.0330 c1        1 OM3     -0.228000
      2 C2          2.7130   -2.6530    0.5660 c1        1 OM3     -0.228000
      3 C3         -2.1100    2.4850    2.7700 c1        1 OM3     -0.111000
      4 C4          4.9470   -1.2790    2.8610 c2        1 OM3      0.258000
      5 C5          3.8340   -1.8020    5.3820 c1        1 OM3     -0.363000
      6 C6          4.5700   -1.8360    6.4130 c1        1 OM3      0.081000
      7 C7         -2.0470    1.5160    3.4670 c1        1 OM3     -0.214000
      8 C8          2.0520   -2.3370    6.8050 c2        1 OM3     -0.200000
      9 C9          6.2350   -0.8970    2.7260 c1        1 OM3     -0.287000
     10 C10         2.4660   -2.0840    5.4760 c2        1 OM3      0.115000
     11 C11         4.3720   -2.1030    7.7350 c2        1 OM3     -0.075000
     12 C12         2.9750   -2.3850    7.9010 c2        1 OM3      0.134000
     13 C13        -1.9400    0.3450    4.2980 c2        1 OM3      0.437000
     14 C15        -9.3130    3.0900    2.7930 c2        1 OM3     -0.224500
     15 C16        -9.0470    1.9050    2.2590 c2        1 OM3     -0.224500
     16 C17        -7.0500    1.7780    5.2310 c2        1 OM3     -0.515000
     17 C18        -4.5580   -3.1700    6.1160 c2        1 OM3     -0.198000
     18 C19        -5.8640    1.2650    5.0960 c1        1 OM3      0.097000
     19 C20         5.2670   -2.1790    9.9610 c1        1 OM3      0.017000
     20 C21        -4.4200   -1.8630    5.9050 c2        1 OM3     -0.191000
     21 C22         0.6270   -4.1790    3.5260 c3        1 OM3     -0.112000
     22 C23         7.4020   -0.5550    2.6310 c1        1 OM3      0.178000
     23 C24         1.5930   -2.0630    4.2550 c3        1 OM3     -0.037000
     24 N26        -3.0590   -0.0340    4.9810 n         1 OM3     -0.350000
     25 N27         0.4980   -2.9960    4.3250 n3        1 OM3     -0.340000
     26 O28        -0.3530   -1.7500    6.7880 oh        1 OM3     -0.267000
     27 O29        -0.8520   -0.2860    4.3890 o         1 OM3     -0.473000
     28 O30         0.2510   -3.5630    7.8270 o         1 OM3     -0.320000
     29 O31         5.3950   -2.1460    8.7080 os        1 OM3      0.029000
     30 O32         2.6190   -2.6790    9.1840 oh        1 OM3     -0.256000
     31 H1         -2.1690    3.3480    2.1520 ha        1 OM3      0.234000
     32 H2          4.3020   -1.4550    1.9690 ha        1 OM3      0.237500
     33 H3          2.9540   -0.7250   -0.5870 ha        1 OM3      0.231500
     34 H4          2.5610   -3.5810    1.0650 ha        1 OM3      0.231500
     35 H5          2.2430   -5.6610    1.8600 ha        1 OM3      0.004250
     36 H6          4.4660   -1.4510    3.9180 ha        1 OM3      0.237500
     37 H231        8.4300   -0.2540    2.5480 ha        1 OM3      0.281000
     38 H232       -0.3830   -2.5310    4.1960 hn        1 OM3      0.210000
     39 H241        1.2010   -1.0030    4.1520 h1        1 OM3      0.101500
     40 H242        2.2560   -2.2610    3.3590 h1        1 OM3      0.101500
     41 H26        -3.9150    0.4850    4.8860 hn        1 OM3      0.279000
     42 H28        -0.0380   -1.0830    6.1530 ho        1 OM3      0.263000
     43 H152       -7.5290    2.0350    6.1890 ha        1 OM3      0.207500
     44 H161       -3.7030   -3.8530    6.2130 ha        1 OM3      0.120500
     45 H162       -9.5980    0.9940    2.5290 ha        1 OM3      0.114000
     46 H171       -7.7020    2.0050    4.3610 ha        1 OM3      0.207500
     47 H172       -8.7720    4.0040    2.5120 ha        1 OM3      0.114000
     48 H181       -5.5440   -3.6420    6.2160 ha        1 OM3      0.120500
     49 H182       -8.2670    1.7580    1.4980 ha        1 OM3      0.114000
     50 H191       -5.2960   -1.1970    5.8120 ha        1 OM3      0.134000
     51 H192       -4.8950    0.6530    7.1700 ha        1 OM3      0.004250
     52 H21        -5.2550    1.2010    7.3500 ha        1 OM3      0.004250
     53 H201        4.3240   -2.1820   10.5320 ha        1 OM3      0.107000
     54 H202        1.7640   -3.1560    9.1980 ho        1 OM3      0.283000
     55 H221        1.5230   -4.7650    3.8650 h1        1 OM3      0.075000
     56 H222        2.5820   -5.9410    1.3450 ha        1 OM3      0.004250
     57 H223       -0.2900   -4.8100    3.6750 h1        1 OM3      0.075000
     58 H227        0.7420   -3.9690    2.4250 h1        1 OM3      0.075000
     59 C14         0.6310   -2.6120    7.1350 c2        1 OM3      0.376000
     60 C25        -3.0780   -1.2060    5.8230 c3        1 OM3     -0.004000
     61 H151      -10.1040    3.2390    3.5420 ha        1 OM3      0.114000
     62 H251       -2.7630   -0.9030    6.8680 h1        1 OM3      0.105000
     63 H252       -2.3010   -1.9400    5.4520 h1        1 OM3      0.105000
@<TRIPOS>BOND
     1    1    2 1
     2    1   33 1
     3    2   34 1
     4    3    7 1
     5    3   31 1
     6    4    9 1
     7    4   32 1
     8    4   36 1
     9    5    6 1
    10    5   10 1
    11    6   11 1
    12    7   13 1
    13    8   10 1
    14    8   12 1
    15    8   59 1
    16    9   22 1
    17   10   23 1
    18   11   12 1
    19   11   29 1
    20   12   30 1
    21   13   24 1
    22   13   27 1
    23   14   15 1
    24   14   47 1
    25   14   61 1
    26   15   45 1
    27   15   49 1
    28   16   18 1
    29   16   43 1
    30   16   46 1
    31   17   20 1
    32   17   44 1
    33   17   48 1
    34   19   29 1
    35   19   53 1
    36   20   50 1
    37   20   60 1
    38   21   25 1
    39   21   55 1
    40   21   57 1
    41   21   58 1
    42   22   37 1
    43   23   25 1
    44   23   39 1
    45   23   40 1
    46   24   41 1
    47   24   60 1
    48   25   38 1
    49   26   42 1
    50   26   59 1
    51   28   59 1
    52   30   54 1
    53   35   56 1
    54   51   52 1
    55   60   62 1
    56   60   63 1
@<TRIPOS>SUBSTRUCTURE
     1 OM3         1 TEMP              0 ****  ****    0 ROOT
