@<TRIPOS>MOLECULE
OMA
   54    54     1     0     0
SMALL
bcc


@<TRIPOS>ATOM
      1 O1          0.2040    0.2690   -1.0940 o         1 OMA     -0.853800
      2 C18         1.3290   -0.2730   -0.8900 c         1 OMA      0.907600
      3 O           1.7090   -0.7020    0.2380 o         1 OMA     -0.853800
      4 C17         2.2740   -0.4340   -2.0950 c3        1 OMA     -0.193400
      5 C16         3.6810   -0.0130   -1.7490 c3        1 OMA     -0.065400
      6 C15         4.6570   -0.3360   -2.8610 c3        1 OMA     -0.078400
      7 C14         6.0620    0.1080   -2.5120 c3        1 OMA     -0.078400
      8 C13         7.0400   -0.2190   -3.6200 c3        1 OMA     -0.078400
      9 C12         8.4430    0.2280   -3.2690 c3        1 OMA     -0.079400
     10 C11         9.4190   -0.0980   -4.3790 c3        1 OMA     -0.079400
     11 C10        10.8210    0.3540   -4.0290 c3        1 OMA     -0.076400
     12 C9         11.7970    0.0210   -5.1390 c3        1 OMA     -0.053400
     13 C8         13.1800    0.4860   -4.8140 cx        1 OMA     -0.109700
     14 C7         13.7750    1.6690   -5.5280 cx        1 OMA     -0.132400
     15 C6         14.3230    0.2920   -5.7860 cx        1 OMA     -0.123700
     16 C5         14.1250   -0.3410   -7.1260 c3        1 OMA     -0.022200
     17 C4         14.4940   -1.7770   -7.1420 c2        1 OMA     -0.164200
     18 C3         14.5680   -2.5120   -8.2570 c2        1 OMA     -0.181200
     19 C2         14.3020   -1.9780   -9.6140 c3        1 OMA     -0.048200
     20 C1         14.3530   -3.0570  -10.6770 c3        1 OMA     -0.078400
     21 C          14.0760   -2.4930  -12.0460 c3        1 OMA     -0.093100
     22 H2          1.8870    0.1680   -2.9540 hc        1 OMA      0.018700
     23 H3          2.2610   -1.5120   -2.3970 hc        1 OMA      0.018700
     24 H4          3.7000    1.0890   -1.5420 hc        1 OMA      0.043700
     25 H5          3.9890   -0.5320   -0.8010 hc        1 OMA      0.043700
     26 H6          4.6520   -1.4400   -3.0560 hc        1 OMA      0.025700
     27 H7          4.3290    0.1680   -3.8080 hc        1 OMA      0.025700
     28 H8          6.3870   -0.3930   -1.5620 hc        1 OMA      0.036700
     29 H9          6.0680    1.2140   -2.3200 hc        1 OMA      0.036700
     30 H10         6.7120    0.2800   -4.5690 hc        1 OMA      0.034200
     31 H11         7.0340   -1.3250   -3.8100 hc        1 OMA      0.034200
     32 H12         8.7700   -0.2740   -2.3210 hc        1 OMA      0.038200
     33 H13         8.4470    1.3330   -3.0770 hc        1 OMA      0.038200
     34 H14         9.0890    0.4020   -5.3280 hc        1 OMA      0.037200
     35 H15         9.4170   -1.2030   -4.5700 hc        1 OMA      0.037200
     36 H16        11.1480   -0.1430   -3.0770 hc        1 OMA      0.039700
     37 H17        10.8250    1.4600   -3.8430 hc        1 OMA      0.039700
     38 H18        11.8140   -1.0900   -5.3030 hc        1 OMA      0.042700
     39 H19        11.4420    0.4910   -6.0960 hc        1 OMA      0.042700
     40 H20        13.4220    0.3650   -3.7370 hc        1 OMA      0.076700
     41 H21        14.3860    2.3890   -4.9570 hc        1 OMA      0.068200
     42 H22        13.1850    2.1640   -6.3200 hc        1 OMA      0.068200
     43 H23        15.3120    0.0430   -5.3480 hc        1 OMA      0.073700
     44 H24        13.0530   -0.2340   -7.4540 hc        1 OMA      0.051700
     45 H25        14.7500    0.2140   -7.8820 hc        1 OMA      0.051700
     46 H26        14.7010   -2.2330   -6.1600 ha        1 OMA      0.125000
     47 H27        14.8390   -3.5790   -8.2030 ha        1 OMA      0.120000
     48 H28        15.0560   -1.1790   -9.8540 hc        1 OMA      0.046700
     49 H29        13.2920   -1.4830   -9.6300 hc        1 OMA      0.046700
     50 H30        15.3640   -3.5440  -10.6660 hc        1 OMA      0.039700
     51 H31        13.5990   -3.8530  -10.4370 hc        1 OMA      0.039700
     52 H32        14.1190   -3.3010  -12.8150 hc        1 OMA      0.032033
     53 H33        14.8310   -1.7130  -12.3120 hc        1 OMA      0.032033
     54 H34        13.0620   -2.0250  -12.0820 hc        1 OMA      0.032033
@<TRIPOS>BOND
     1    1    2 1   
     2    2    3 1   
     3    2    4 1   
     4    4    5 1   
     5    4   22 1   
     6    4   23 1   
     7    5    6 1   
     8    5   24 1   
     9    5   25 1   
    10    6    7 1   
    11    6   26 1   
    12    6   27 1   
    13    7    8 1   
    14    7   28 1   
    15    7   29 1   
    16    8    9 1   
    17    8   30 1   
    18    8   31 1   
    19    9   10 1   
    20    9   32 1   
    21    9   33 1   
    22   10   11 1   
    23   10   34 1   
    24   10   35 1   
    25   11   12 1   
    26   11   36 1   
    27   11   37 1   
    28   12   13 1   
    29   12   38 1   
    30   12   39 1   
    31   13   14 1   
    32   13   15 1   
    33   13   40 1   
    34   14   15 1   
    35   14   41 1   
    36   14   42 1   
    37   15   16 1   
    38   15   43 1   
    39   16   17 1   
    40   16   44 1   
    41   16   45 1   
    42   17   18 2   
    43   17   46 1   
    44   18   19 1   
    45   18   47 1   
    46   19   20 1   
    47   19   48 1   
    48   19   49 1   
    49   20   21 1   
    50   20   50 1   
    51   20   51 1   
    52   21   52 1   
    53   21   53 1   
    54   21   54 1   
@<TRIPOS>SUBSTRUCTURE
     1 OMA         1 TEMP              0 ****  ****    0 ROOT
