@<TRIPOS>MOLECULE
molecule
   54    54     1     0     0
SMALL
bcc


@<TRIPOS>ATOM
      1 O1           0.0000     0.0000     0.0000 o          1 OMA      -0.858300
      2 C18          1.3420     0.0000     0.0000 c          1 OMA       0.890600
      3 O            1.9460     0.0000     1.0470 o          1 OMA      -0.858300
      4 C17          2.0960     0.0000    -1.3040 c3         1 OMA      -0.182400
      5 C16          3.5990     0.0000    -1.0250 c3         1 OMA      -0.063400
      6 C15          4.3650     0.0010    -2.3500 c3         1 OMA      -0.088400
      7 C14          5.8690     0.0000    -2.0690 c3         1 OMA      -0.081400
      8 C13          6.6350     0.0010    -3.3940 c3         1 OMA      -0.083400
      9 C12          8.1390     0.0000    -3.1140 c3         1 OMA      -0.082400
     10 C11          8.9040     0.0010    -4.4390 c3         1 OMA      -0.083400
     11 C10         10.4090     0.0010    -4.1590 c3         1 OMA      -0.080400
     12 C9          11.1740     0.0010    -5.4840 c3         1 OMA      -0.048400
     13 C8          12.6780     0.0010    -5.2030 cx         1 OMA      -0.124700
     14 C7          13.4830     1.2170    -5.6670 cx         1 OMA      -0.138400
     15 C6          13.6210    -0.1170    -6.4040 cx         1 OMA      -0.133700
     16 C5          12.9860    -0.2250    -7.7910 c3         1 OMA      -0.013200
     17 C4          14.0640    -0.4560    -8.8200 c2         1 OMA      -0.169200
     18 C3          13.9920    -1.4880    -9.6230 c2         1 OMA      -0.182200
     19 C2          15.0700    -1.7170   -10.6520 c3         1 OMA      -0.046200
     20 C1          15.6480    -3.1240   -10.4800 c3         1 OMA      -0.080400
     21 C           16.7410    -3.3580   -11.5230 c3         1 OMA      -0.093100
     22 H2           1.8340     0.8850    -1.8720 hc         1 OMA       0.026700
     23 H3           1.8340    -0.8840    -1.8720 hc         1 OMA       0.026700
     24 H4           3.8610     0.8850    -0.4560 hc         1 OMA       0.044700
     25 H5           3.8610    -0.8840    -0.4570 hc         1 OMA       0.044700
     26 H6           4.1040    -0.8830    -2.9180 hc         1 OMA       0.028700
     27 H7           4.1040     0.8860    -2.9170 hc         1 OMA       0.028700
     28 H8           6.1310     0.8840    -1.5010 hc         1 OMA       0.038700
     29 H9           6.1310    -0.8850    -1.5020 hc         1 OMA       0.038700
     30 H10          6.3730    -0.8840    -3.9630 hc         1 OMA       0.036200
     31 H11          6.3740     0.8850    -3.9620 hc         1 OMA       0.036200
     32 H12          8.4010    -0.8850    -2.5470 hc         1 OMA       0.039700
     33 H13          8.4010     0.8840    -2.5450 hc         1 OMA       0.039700
     34 H14          8.6420    -0.8830    -5.0080 hc         1 OMA       0.038700
     35 H15          8.6420     0.8860    -5.0060 hc         1 OMA       0.038700
     36 H16         10.6710     0.8850    -3.5910 hc         1 OMA       0.041700
     37 H17         10.6700    -0.8840    -3.5920 hc         1 OMA       0.041700
     38 H18         10.9120     0.8860    -6.0520 hc         1 OMA       0.043700
     39 H19         10.9130    -0.8830    -6.0520 hc         1 OMA       0.043700
     40 H20         13.0420    -0.4630    -4.2940 hc         1 OMA       0.080700
     41 H21         12.9180     1.9820    -6.1860 hc         1 OMA       0.071700
     42 H22         14.3210     1.4910    -5.0370 hc         1 OMA       0.071700
     43 H23         14.5420    -0.6510    -6.2060 hc         1 OMA       0.079700
     44 H24         12.4580     0.6930    -8.0200 hc         1 OMA       0.051200
     45 H25         12.2890    -1.0550    -7.8060 hc         1 OMA       0.051200
     46 H26         14.8970     0.2330    -8.8950 ha         1 OMA       0.123000
     47 H27         13.1590    -2.1760    -9.5490 ha         1 OMA       0.126000
     48 H28         14.6480    -1.6180   -11.6450 hc         1 OMA       0.044200
     49 H29         15.8570    -0.9850   -10.5190 hc         1 OMA       0.044200
     50 H30         14.8600    -3.8560   -10.6120 hc         1 OMA       0.043200
     51 H31         16.0690    -3.2230    -9.4870 hc         1 OMA       0.043200
     52 H32         17.5770    -2.6980   -11.3240 hc         1 OMA       0.031700
     53 H33         16.3470    -3.1520   -12.5110 hc         1 OMA       0.031700
     54 H34         17.0730    -4.3870   -11.4740 hc         1 OMA       0.031700
@<TRIPOS>BOND
     1     3     2 1
     2     2     1 1
     3     2     4 1
     4     5     6 1
     5     5     4 1
     6     6     7 1
     7    13    15 1
     8    13    14 1
     9    13    12 1
    10    15    14 1
    11    15    16 1
    12     9     8 1
    13     9    10 1
    14     7     8 1
    15    11    12 1
    16    11    10 1
    17    16    17 1
    18    17    18 2
    19    18    19 1
    20    19    20 1
    21    20    21 1
    22     4    22 1
    23     4    23 1
    24     5    24 1
    25     5    25 1
    26     6    26 1
    27     6    27 1
    28     7    28 1
    29     7    29 1
    30     8    30 1
    31     8    31 1
    32     9    32 1
    33     9    33 1
    34    10    34 1
    35    10    35 1
    36    11    36 1
    37    11    37 1
    38    12    38 1
    39    12    39 1
    40    13    40 1
    41    14    41 1
    42    14    42 1
    43    15    43 1
    44    16    44 1
    45    16    45 1
    46    17    46 1
    47    18    47 1
    48    19    48 1
    49    19    49 1
    50    20    50 1
    51    20    51 1
    52    21    52 1
    53    21    53 1
    54    21    54 1
@<TRIPOS>SUBSTRUCTURE
     1 OMA         1 TEMP              0 ****  ****    0 ROOT
