@<TRIPOS>MOLECULE
OMB
    4     3     1     0     0
SMALL
bcc


@<TRIPOS>ATOM
      1 O           0.0460   -0.0660    0.0720 o         1 OMB     -0.515100
      2 C           1.2620   -0.2220    0.1280 c         1 OMB      0.562700
      3 HC1         1.8850    0.2530    0.9150 h4        1 OMB     -0.023800
      4 HC2         1.8130   -0.8490   -0.6050 h4        1 OMB     -0.023800
@<TRIPOS>BOND
     1    1    2 2   
     2    2    3 1   
     3    2    4 1   
@<TRIPOS>SUBSTRUCTURE
     1 OMB         1 TEMP              0 ****  ****    0 ROOT
