@<TRIPOS>MOLECULE
OMD
   19    19     1     0     0
SMALL
bcc


@<TRIPOS>ATOM
      1 C1         -0.0210    0.2210   -0.0030 c         1 OMD      0.919600
      2 C2          1.4440   -0.2570    0.1360 c3        1 OMD     -0.180100
      3 C1'         1.9890   -0.0810    1.5020 ca        1 OMD     -0.055300
      4 C2'         2.2020   -1.1920    2.3210 ca        1 OMD     -0.183000
      5 C3'         2.7640   -1.0360    3.5950 ca        1 OMD      0.064100
      6 O3'         3.0030   -2.1160    4.4290 oh        1 OMD     -0.523100
      7 C4'         3.1290    0.2260    4.0760 ca        1 OMD     -0.153000
      8 C5'         2.9050    1.3420    3.2750 ca        1 OMD     -0.155000
      9 C6'         2.3300    1.1980    2.0030 ca        1 OMD      0.125100
     10 O6'         2.1710    2.3490    1.2750 oh        1 OMD     -0.552100
     11 O1         -0.9180   -0.6500   -0.1440 o         1 OMD     -0.834300
     12 O2         -0.2290    1.4720   -0.0080 o         1 OMD     -0.834300
     13 H21         2.0620    0.3380   -0.5860 hc        1 OMD      0.041700
     14 H22         1.4910   -1.3340   -0.1640 hc        1 OMD      0.041700
     15 H2'         1.9160   -2.1920    1.9630 ha        1 OMD      0.130000
     16 HO3         2.5780   -2.8850    4.0260 ho        1 OMD      0.406000
     17 H4'         3.5760    0.3240    5.0730 ha        1 OMD      0.127000
     18 H5'         3.1710    2.3460    3.6310 ha        1 OMD      0.131000
     19 HO6         1.4160    2.2200    0.6560 ho        1 OMD      0.486000
@<TRIPOS>BOND
     1    1    2 1   
     2    1   11 1   
     3    1   12 1   
     4    2    3 1   
     5    2   13 1   
     6    2   14 1   
     7    3    4 ar  
     8    3    9 ar  
     9    4    5 ar  
    10    4   15 1   
    11    5    6 1   
    12    5    7 ar  
    13    6   16 1   
    14    7    8 ar  
    15    7   17 1   
    16    8    9 ar  
    17    8   18 1   
    18    9   10 1   
    19   10   19 1   
@<TRIPOS>SUBSTRUCTURE
     1 OMD         1 TEMP              0 ****  ****    0 ROOT
