@<TRIPOS>MOLECULE
molecule
   19    19     1     0     0
SMALL
bcc


@<TRIPOS>ATOM
      1 C1           0.0000     0.0000     0.0000 c          1 OMD       0.899600
      2 C2           1.5060     0.0000     0.0000 c3         1 OMD      -0.148100
      3 C1'          2.0090     0.0000     1.4200 ca         1 OMD      -0.007300
      4 C2'          2.2390    -1.1950     2.0710 ca         1 OMD      -0.125000
      5 C3'          2.7030    -1.1950     3.3790 ca         1 OMD       0.070100
      6 O3'          2.9310    -2.3720     4.0200 oh         1 OMD      -0.539100
      7 C4'          2.9360     0.0060     4.0310 ca         1 OMD      -0.161000
      8 C5'          2.7040     1.2020     3.3800 ca         1 OMD      -0.187000
      9 C6'          2.2460     1.2020     2.0710 ca         1 OMD       0.112100
     10 O6'          2.0190     2.3790     1.4300 oh         1 OMD      -0.489100
     11 O1          -0.6030     0.0000     1.0470 o          1 OMD      -0.845300
     12 O2          -0.6730    -0.0010    -1.1610 o          1 OMD      -0.845300
     13 H21          1.8670    -0.8840    -0.5110 hc         1 OMD       0.044200
     14 H22          1.8670     0.8840    -0.5110 hc         1 OMD       0.044200
     15 H2'          2.0920    -2.1330     1.5500 ha         1 OMD       0.141000
     16 HO3          2.1340    -2.6680     4.4270 ho         1 OMD       0.410000
     17 H4'          3.2960     0.0070     5.0530 ha         1 OMD       0.117000
     18 H5'          2.8880     2.1400     3.8890 ha         1 OMD       0.115000
     19 HO6          2.7740     2.9370     1.5220 ho         1 OMD       0.393000
@<TRIPOS>BOND
     1     1     2 1
     2     1    11 1
     3     1    12 1
     4     2     3 1
     5     2    13 1
     6     2    14 1
     7     3     4 ar
     8     3     9 ar
     9     4     5 ar
    10     4    15 1
    11     5     6 1
    12     5     7 ar
    13     6    16 1
    14     7     8 ar
    15     7    17 1
    16     8     9 ar
    17     8    18 1
    18     9    10 1
    19    10    19 1
@<TRIPOS>SUBSTRUCTURE
     1 OMD         1 TEMP              0 ****  ****    0 ROOT
