@<TRIPOS>MOLECULE
OMI
   20    21     1     0     0
SMALL
bcc


@<TRIPOS>ATOM
      1 CA           0.0000     0.0000     0.0000 c3         1 OMI       0.032800
      2 C            1.5140     0.0000     0.0000 c          1 OMI       0.633700
      3 O            2.2480     0.0010    -0.9650 o          1 OMI      -0.540100
      4 CAI          1.9040     0.0000     1.4170 ca         1 OMI      -0.263600
      5 CAE          3.1660     0.0000     2.0260 ca         1 OMI       0.009000
      6 CAC          3.2650     0.0010     3.3990 ca         1 OMI      -0.148000
      7 CAD          2.1200     0.0000     4.1800 ca         1 OMI      -0.044000
      8 CAF          0.8710    -0.0010     3.5970 ca         1 OMI      -0.126000
      9 CAJ          0.7440    -0.0000     2.2070 ca         1 OMI       0.054600
     10 N           -0.3930    -0.0010     1.4170 nh         1 OMI      -0.351000
     11 CAA         -1.2490    -1.1550     1.7250 c3         1 OMI       0.176100
     12 H1          -0.3620     0.9030    -0.4760 h1         1 OMI       0.052200
     13 H2          -0.3620    -0.9030    -0.4770 h1         1 OMI       0.052200
     14 H3           4.0620     0.0010     1.4180 ha         1 OMI       0.111000
     15 H4           4.2400     0.0020     3.8700 ha         1 OMI       0.109000
     16 H5           2.2080     0.0010     5.2600 ha         1 OMI       0.102000
     17 H6          -0.0150    -0.0010     4.2200 ha         1 OMI       0.112000
     18 H7          -0.6620    -2.0640     1.6690 h1         1 OMI       0.009700
     19 H8          -2.0610    -1.2040     1.0090 h1         1 OMI       0.009700
     20 H9          -1.6540    -1.0470     2.7240 h1         1 OMI       0.009700
@<TRIPOS>BOND
     1     1     2 1   
     2     1    10 1   
     3     1    12 1   
     4     1    13 1   
     5     2     3 2   
     6     2     4 1   
     7     4     5 ar  
     8     4     9 ar  
     9     5     6 ar  
    10     5    14 1   
    11     6     7 ar  
    12     6    15 1   
    13     7     8 ar  
    14     7    16 1   
    15     8     9 ar  
    16     8    17 1   
    17     9    10 1   
    18    10    11 1   
    19    11    18 1   
    20    11    19 1   
    21    11    20 1   
@<TRIPOS>SUBSTRUCTURE
     1 OMI         1 TEMP              0 ****  ****    0 ROOT
