@<TRIPOS>MOLECULE
OMK
   61    65     1     0     0
SMALL
bcc


@<TRIPOS>ATOM
      1 N1           0.0000     0.0000     0.0000 na         1 OMK       0.350700
      2 C2           1.3690     0.0000     0.0000 cc         1 OMK       0.297400
      3 N3           1.8120     0.0000     1.2330 nd         1 OMK      -0.503100
      4 C4          -0.4080     0.0000     1.3200 ca         1 OMK      -0.236200
      5 C5           0.7650     0.0010     2.0940 ca         1 OMK       0.077400
      6 C6          -0.6760     1.2910    -1.9400 c          1 OMK       0.546100
      7 C7          -0.8700     0.0040    -1.1790 c3         1 OMK      -0.146000
      8 C8          -1.6490     0.0000     1.9430 ca         1 OMK      -0.159000
      9 C10          0.6710     0.0010     3.4900 ca         1 OMK      -0.048000
     10 C11         -1.7270     0.0000     3.3210 ca         1 OMK       0.094900
     11 C12          2.2200    -0.0000    -1.2090 ca         1 OMK      -0.087900
     12 C13         -0.5680    -0.0000     4.0920 ca         1 OMK       0.063900
     13 C14         -0.8010     2.5420    -3.9600 ca         1 OMK      -0.100400
     14 O15         -0.2990     2.2870    -1.3610 o          1 OMK      -0.607100
     15 C16         -1.2570     2.6410    -5.2680 ca         1 OMK      -0.130300
     16 C17         -2.3300    -0.1130    -0.7370 c3         1 OMK      -0.074700
     17 C18          3.5590     0.3810    -1.1240 ca         1 OMK      -0.093000
     18 C19          1.6870    -0.3880    -2.4400 ca         1 OMK      -0.093000
     19 F20         -2.9350     0.0010     3.9250 f          1 OMK      -0.118900
     20 F21         -0.6600     0.0000     5.4390 f          1 OMK      -0.117900
     21 C22          3.8130    -0.0020    -3.4740 ca         1 OMK      -0.027600
     22 C23          2.4860    -0.3860    -3.5640 ca         1 OMK      -0.092500
     23 C24          4.3490     0.3790    -2.2560 ca         1 OMK      -0.092500
     24 Cl25         4.8110    -0.0020    -4.8950 cl         1 OMK      -0.019400
     25 C26         -0.2280     3.6460    -3.3410 ca         1 OMK      -0.155000
     26 C27         -1.8860     1.4480    -5.9390 c3         1 OMK       0.063200
     27 C28         -1.1350     3.8350    -5.9520 ca         1 OMK      -0.079000
     28 C29         -3.2460     0.0840    -1.9460 c3         1 OMK      -0.053900
     29 C30         -2.5700    -1.4980    -0.1330 c3         1 OMK      -0.053900
     30 C31         -0.1090     4.8360    -4.0310 ca         1 OMK      -0.077000
     31 C32         -0.5590     4.9300    -5.3350 ca         1 OMK      -0.113000
     32 C33         -4.0300    -1.6150     0.3080 c3         1 OMK      -0.020900
     33 C34         -4.7060    -0.0330    -1.5040 c3         1 OMK      -0.020900
     34 C35         -4.9470    -1.4180    -0.9010 c3         1 OMK      -0.027400
     35 H7          -0.6170    -0.8340    -1.8170 h1         1 OMK       0.065700
     36 H8          -2.5550     0.0010     1.3480 ha         1 OMK       0.167000
     37 HN9         -1.1790     0.4990    -3.7530 hn         1 OMK       0.176500
     38 H10          1.5690     0.0010     4.0950 ha         1 OMK       0.131000
     39 H17         -2.5490     0.6450     0.0060 hc         1 OMK       0.076700
     40 H18          3.9790     0.6790    -0.1700 ha         1 OMK       0.122000
     41 H19          0.6490    -0.6890    -2.5120 ha         1 OMK       0.122000
     42 H23          2.0730    -0.6840    -4.5210 ha         1 OMK       0.116500
     43 H24          5.3880     0.6770    -2.1910 ha         1 OMK       0.116500
     44 H26          0.1250     3.5730    -2.3200 ha         1 OMK       0.193000
     45 H27         -2.0780     1.6790    -6.9800 hc         1 OMK       0.007033
     46 H27A        -2.8180     1.2050    -5.4440 hc         1 OMK       0.007033
     47 H27B        -1.2120     0.6020    -5.8760 hc         1 OMK       0.007033
     48 H28         -1.4880     3.9130    -6.9730 ha         1 OMK       0.106000
     49 H29         -3.0320    -0.6780    -2.6870 hc         1 OMK       0.029700
     50 H29A        -3.0760     1.0660    -2.3710 hc         1 OMK       0.029700
     51 H30         -2.3570    -2.2560    -0.8770 hc         1 OMK       0.029700
     52 H30A        -1.9230    -1.6340     0.7240 hc         1 OMK       0.029700
     53 H31          0.3400     5.6970    -3.5510 ha         1 OMK       0.106000
     54 H32         -0.4640     5.8660    -5.8740 ha         1 OMK       0.104000
     55 H33         -4.2430    -0.8530     1.0490 hc         1 OMK       0.021450
     56 H33A        -4.2000    -2.5970     0.7330 hc         1 OMK       0.021450
     57 H34         -4.9180     0.7250    -0.7600 hc         1 OMK       0.021450
     58 H34A        -5.3540     0.1040    -2.3610 hc         1 OMK       0.021450
     59 H35         -5.9800    -1.4990    -0.5860 hc         1 OMK       0.017700
     60 H35A        -4.7310    -2.1770    -1.6440 hc         1 OMK       0.017700
     61 N9          -0.9230     1.3340    -3.2640 ns         1 OMK      -0.007100
@<TRIPOS>BOND
     1     1     2 1   
     2     1     4 1   
     3     1     7 1   
     4     2     3 2   
     5     2    11 1   
     6     3     5 1   
     7     4     5 ar  
     8     4     8 ar  
     9     5     9 ar  
    10     6     7 1   
    11     6    14 2   
    12     6    61 1   
    13     7    16 1   
    14     7    35 1   
    15     8    10 ar  
    16     8    36 1   
    17     9    12 ar  
    18     9    38 1   
    19    10    12 ar  
    20    10    19 1   
    21    11    17 ar  
    22    11    18 ar  
    23    12    20 1   
    24    13    15 ar  
    25    13    25 ar  
    26    13    61 1   
    27    15    26 1   
    28    15    27 ar  
    29    16    28 1   
    30    16    29 1   
    31    16    39 1   
    32    17    23 ar  
    33    17    40 1   
    34    18    22 ar  
    35    18    41 1   
    36    21    22 ar  
    37    21    23 ar  
    38    21    24 1   
    39    22    42 1   
    40    23    43 1   
    41    25    30 ar  
    42    25    44 1   
    43    26    45 1   
    44    26    46 1   
    45    26    47 1   
    46    27    31 ar  
    47    27    48 1   
    48    28    33 1   
    49    28    49 1   
    50    28    50 1   
    51    29    32 1   
    52    29    51 1   
    53    29    52 1   
    54    30    31 ar  
    55    30    53 1   
    56    31    54 1   
    57    32    34 1   
    58    32    55 1   
    59    32    56 1   
    60    33    34 1   
    61    33    57 1   
    62    33    58 1   
    63    34    59 1   
    64    34    60 1   
    65    37    61 1   
@<TRIPOS>SUBSTRUCTURE
     1 OMK         1 TEMP              0 ****  ****    0 ROOT
