@<TRIPOS>MOLECULE
molecule
   60    64     1     0     0
SMALL
bcc


@<TRIPOS>ATOM
      1 N1           0.0000     0.0000     0.0000 na         1 OMM      -0.123300
      2 C2           1.3690     0.0000     0.0000 cc         1 OMM       0.500400
      3 N3           1.8120     0.0000     1.2330 nd         1 OMM      -0.596100
      4 C4          -0.4080     0.0000     1.3210 ca         1 OMM      -0.068200
      5 C5           0.7650     0.0010     2.0950 ca         1 OMM       0.105400
      6 C6          -0.7280     1.3210    -1.9010 c          1 OMM       0.634100
      7 C7          -0.8700     0.0050    -1.1790 c3         1 OMM      -0.017000
      8 C8          -1.6500     0.0010     1.9430 ca         1 OMM      -0.159000
      9 C10          0.6700     0.0000     3.4900 ca         1 OMM      -0.095000
     10 C11         -1.7270     0.0010     3.3210 ca         1 OMM       0.100900
     11 C12         -0.8160     2.6020    -3.9000 ca         1 OMM      -0.030400
     12 C14          2.2200    -0.0000    -1.2090 ca         1 OMM      -0.101900
     13 C15         -0.5690    -0.0000     4.0920 ca         1 OMM       0.079900
     14 C16         -0.6920     5.0410    -5.2110 ca         1 OMM      -0.083600
     15 C17         -1.5400     2.7960    -5.0750 ca         1 OMM       0.063900
     16 C18         -1.4790     4.0080    -5.7290 ca         1 OMM      -0.128000
     17 O20         -1.2540     6.5120    -6.9330 o          1 OMM      -0.829300
     18 C21         -0.0370     3.6290    -3.3810 ca         1 OMM      -0.137000
     19 C22          0.0270     4.8420    -4.0290 ca         1 OMM      -0.094000
     20 C23         -2.3230    -0.1830    -0.7420 c3         1 OMM      -0.086700
     21 C24          3.4510     0.6590    -1.2010 ca         1 OMM      -0.092000
     22 C25          1.7980    -0.6640    -2.3620 ca         1 OMM      -0.092000
     23 F26         -2.9360     0.0010     3.9250 f          1 OMM      -0.132900
     24 F27         -0.6590     0.0000     5.4400 f          1 OMM      -0.134900
     25 F28         -2.2990     1.7970    -5.5740 f          1 OMM      -0.172900
     26 O29          0.1350     7.3340    -5.4080 o          1 OMM      -0.829300
     27 C30          3.8130    -0.0010    -3.4750 ca         1 OMM       0.046400
     28 C31          2.5960    -0.6610    -3.4870 ca         1 OMM      -0.121500
     29 C32          4.2390     0.6550    -2.3320 ca         1 OMM      -0.121500
     30 Cl33         4.8110    -0.0010    -4.8950 cl         1 OMM      -0.103400
     31 C34         -3.2400    -0.0840    -1.9620 c3         1 OMM      -0.090900
     32 C35         -2.4860    -1.5580    -0.0910 c3         1 OMM      -0.090900
     33 C36         -3.9410    -1.7460     0.3470 c3         1 OMM      -0.077400
     34 C37         -4.6940    -0.2720    -1.5250 c3         1 OMM      -0.077400
     35 C38         -4.8570    -1.6470    -0.8740 c3         1 OMM      -0.083400
     36 H7          -0.5850    -0.8030    -1.8420 h1         1 OMM       0.071700
     37 H8          -2.5550     0.0010     1.3480 ha         1 OMM       0.174000
     38 HN9         -1.0010     0.5310    -3.7630 hn         1 OMM       0.317500
     39 H10          1.5690    -0.0010     4.0950 ha         1 OMM       0.160000
     40 H18         -2.0410     4.1600    -6.6420 ha         1 OMM       0.164000
     41 H21          0.5210     3.4750    -2.4650 ha         1 OMM       0.157000
     42 H22          0.6350     5.6420    -3.6230 ha         1 OMM       0.166000
     43 H23         -2.5920     0.5860    -0.0270 hc         1 OMM       0.088700
     44 H24          3.7850     1.1730    -0.3080 ha         1 OMM       0.147000
     45 H25          0.8460    -1.1810    -2.3730 ha         1 OMM       0.147000
     46 H31          2.2680    -1.1750    -4.3830 ha         1 OMM       0.148000
     47 H32          5.1930     1.1680    -2.3270 ha         1 OMM       0.148000
     48 H34         -3.1260     0.8920    -2.4200 hc         1 OMM       0.055200
     49 H34A        -2.9760    -0.8560    -2.6750 hc         1 OMM       0.055200
     50 H35         -2.2230    -2.3280    -0.8070 hc         1 OMM       0.055200
     51 H35A        -1.8380    -1.6260     0.7740 hc         1 OMM       0.055200
     52 H36         -4.0550    -2.7220     0.8040 hc         1 OMM       0.047200
     53 H36A        -4.2050    -0.9740     1.0590 hc         1 OMM       0.047200
     54 H37         -4.9570     0.4980    -0.8100 hc         1 OMM       0.047200
     55 H37A        -5.3420    -0.2050    -2.3910 hc         1 OMM       0.047200
     56 H38         -5.8860    -1.7780    -0.5630 hc         1 OMM       0.040700
     57 H38A        -4.5890    -2.4170    -1.5880 hc         1 OMM       0.040700
     58 N9          -0.8790     1.3750    -3.2390 ns         1 OMM      -0.454100
     59 C13         -0.6240     6.3390    -5.9070 c          1 OMM       0.880200
     60 O19         -0.4790     2.3310    -1.2780 o          1 OMM      -0.566100
@<TRIPOS>BOND
     1     1     2 1
     2     1     4 1
     3     1     7 1
     4     2     3 2
     5     2    12 1
     6     3     5 1
     7     4     5 ar
     8     4     8 ar
     9     5     9 ar
    10     6     7 1
    11     6    58 1
    12     6    60 2
    13     7    20 1
    14     8    10 ar
    15    58    11 1
    16     9    13 ar
    17    10    13 ar
    18    10    23 1
    19    11    15 ar
    20    11    18 ar
    21    59    14 1
    22    59    17 1
    23    59    26 1
    24    12    21 ar
    25    12    22 ar
    26    13    24 1
    27    14    16 ar
    28    14    19 ar
    29    15    16 ar
    30    15    25 1
    31    18    19 ar
    32    20    31 1
    33    20    32 1
    34    21    29 ar
    35    22    28 ar
    36    27    28 ar
    37    27    29 ar
    38    27    30 1
    39    31    34 1
    40    32    33 1
    41    33    35 1
    42    34    35 1
    43     7    36 1
    44     8    37 1
    45    58    38 1
    46     9    39 1
    47    16    40 1
    48    18    41 1
    49    19    42 1
    50    20    43 1
    51    21    44 1
    52    22    45 1
    53    28    46 1
    54    29    47 1
    55    31    48 1
    56    31    49 1
    57    32    50 1
    58    32    51 1
    59    33    52 1
    60    33    53 1
    61    34    54 1
    62    34    55 1
    63    35    56 1
    64    35    57 1
@<TRIPOS>SUBSTRUCTURE
     1 OMM         1 TEMP              0 ****  ****    0 ROOT
