@<TRIPOS>MOLECULE
OMN
   27    28     1     0     0
SMALL
bcc


@<TRIPOS>ATOM
      1 C1          0.3610    1.2570   -0.3210 c3        1 OMN      0.030600
      2 N1          1.6540    0.6400   -0.1390 na        1 OMN      0.120400
      3 N2          2.4800    0.9280    0.8700 nc        1 OMN     -0.462800
      4 C2          3.5720    0.1150    0.7510 cd        1 OMN      0.416800
      5 C3          3.4160   -0.7500   -0.4130 cd        1 OMN     -0.130200
      6 Br1         4.6330   -1.9810   -0.9960 br        1 OMN      0.009900
      7 C4          2.1650   -0.3890   -0.9520 cc        1 OMN     -0.198600
      8 C5          1.4100   -0.8810   -2.1640 c3        1 OMN      0.725200
      9 F1          1.3470    0.0380   -3.1880 f         1 OMN     -0.234633
     10 F2          1.8910   -2.0150   -2.7600 f         1 OMN     -0.234633
     11 F3          0.0870   -1.1750   -1.9190 f         1 OMN     -0.234633
     12 C6          4.7070    0.1380    1.6600 ca        1 OMN     -0.193500
     13 C7          5.0860   -1.0190    2.3480 ca        1 OMN     -0.060000
     14 C8          6.1730   -1.0260    3.2270 ca        1 OMN     -0.104600
     15 C9          6.5260   -2.3380    3.9400 c         1 OMN      0.919200
     16 O1          7.3840   -3.0760    3.3910 o         1 OMN     -0.806300
     17 O2          5.9070   -2.5930    5.0060 o         1 OMN     -0.806300
     18 C10         6.8870    0.1610    3.4180 ca        1 OMN      0.068400
     19 Cl1         8.2180    0.2240    4.4770 cl        1 OMN     -0.096400
     20 C11         6.5320    1.3370    2.7500 ca        1 OMN     -0.189000
     21 C12         5.4380    1.3290    1.8710 ca        1 OMN      0.122900
     22 F4          5.1030    2.4750    1.2250 f         1 OMN     -0.155900
     23 H11A        0.2080    1.4490   -1.4170 h1        1 OMN      0.066033
     24 H12         0.3060    2.2230    0.2460 h1        1 OMN      0.066033
     25 H13        -0.4400    0.5590    0.0470 h1        1 OMN      0.066033
     26 H7          4.5190   -1.9530    2.2070 ha        1 OMN      0.153000
     27 H11         7.0930    2.2690    2.9020 ha        1 OMN      0.141000
@<TRIPOS>BOND
     1    1    2 1   
     2    1   23 1   
     3    1   24 1   
     4    1   25 1   
     5    2    3 1   
     6    2    7 1   
     7    3    4 2   
     8    4    5 1   
     9    4   12 1   
    10    5    6 1   
    11    5    7 2   
    12    7    8 1   
    13    8    9 1   
    14    8   10 1   
    15    8   11 1   
    16   12   13 ar  
    17   12   21 ar  
    18   13   14 ar  
    19   13   26 1   
    20   14   15 1   
    21   14   18 ar  
    22   15   16 1   
    23   15   17 1   
    24   18   19 1   
    25   18   20 ar  
    26   20   21 ar  
    27   20   27 1   
    28   21   22 1   
@<TRIPOS>SUBSTRUCTURE
     1 OMN         1 TEMP              0 ****  ****    0 ROOT
