@<TRIPOS>MOLECULE
molecule
   27    28     1     0     0
SMALL
bcc


@<TRIPOS>ATOM
      1 C1           0.0000     0.0000     0.0000 c3         1 OMN       0.060600
      2 N1           1.4650     0.0000     0.0000 na         1 OMN       0.090400
      3 N2           2.2870     0.0000     1.1340 nc         1 OMN      -0.461800
      4 C2           3.5410    -0.0010     0.7310 cd         1 OMN       0.447800
      5 C3           3.5430    -0.0010    -0.6770 cd         1 OMN      -0.163200
      6 Br1          5.0740    -0.0020    -1.7880 br         1 OMN      -0.041100
      7 C4           2.2580    -0.0060    -1.0940 cc         1 OMN      -0.159600
      8 C5           1.7900    -0.0080    -2.5270 c3         1 OMN       0.698200
      9 F1           1.6410     1.3110    -2.9700 f          1 OMN      -0.217633
     10 F2           2.7350    -0.6630    -3.3250 f          1 OMN      -0.217633
     11 F3           0.5630    -0.6720    -2.6160 f          1 OMN      -0.217633
     12 C6           4.7380    -0.0010     1.6070 ca         1 OMN      -0.210500
     13 C7           4.7570    -0.7740     2.7610 ca         1 OMN      -0.025000
     14 C8           5.8860    -0.7700     3.5800 ca         1 OMN      -0.116600
     15 C9           5.9130    -1.5890     4.8070 c          1 OMN       0.879200
     16 O1           4.8450    -2.3410     5.1380 o          1 OMN      -0.820800
     17 O2           6.8970    -1.5840     5.5190 o          1 OMN      -0.820800
     18 C10          6.9940     0.0110     3.2350 ca         1 OMN       0.086400
     19 Cl1          8.4020     0.0180     4.2510 cl         1 OMN      -0.074400
     20 C11          6.9700     0.7770     2.0850 ca         1 OMN      -0.200000
     21 C12          5.8530     0.7710     1.2680 ca         1 OMN       0.136900
     22 F4           5.8360     1.5230     0.1450 f          1 OMN      -0.147900
     23 H11A        -0.3610     0.1600     1.0090 h1         1 OMN       0.059700
     24 H12         -0.3610     0.7940    -0.6430 h1         1 OMN       0.059700
     25 H13         -0.3610    -0.9530    -0.3660 h1         1 OMN       0.059700
     26 H7           3.9290    -1.4360     2.9830 ha         1 OMN       0.179000
     27 H11          7.8270     1.3850     1.8230 ha         1 OMN       0.139000
@<TRIPOS>BOND
     1     1     2 1
     2     1    23 1
     3     1    24 1
     4     1    25 1
     5     2     3 1
     6     2     7 1
     7     3     4 2
     8     4     5 1
     9     4    12 1
    10     5     6 1
    11     5     7 2
    12     7     8 1
    13     8     9 1
    14     8    10 1
    15     8    11 1
    16    12    13 ar
    17    12    21 ar
    18    13    14 ar
    19    13    26 1
    20    14    15 1
    21    14    18 ar
    22    15    16 1
    23    15    17 1
    24    18    19 1
    25    18    20 ar
    26    20    21 ar
    27    20    27 1
    28    21    22 1
@<TRIPOS>SUBSTRUCTURE
     1 OMN         1 TEMP              0 ****  ****    0 ROOT
