@<TRIPOS>MOLECULE
OMP
   34    35     1     0     0
SMALL
bcc


@<TRIPOS>ATOM
      1 P            0.0000     0.0000     0.0000 p5         1 OMP       0.678900
      2 O1P          1.4800     0.0000     0.0000 o          1 OMP      -0.764833
      3 O2P         -0.5380     0.0000     1.5180 o          1 OMP      -0.764833
      4 O3P         -0.5360     1.3150    -0.7590 o          1 OMP      -0.764833
      5 O5'         -0.5370    -1.3140    -0.7590 os         1 OMP      -0.460200
      6 C5'         -0.1490    -1.6570    -2.0910 c3         1 OMP       0.279400
      7 C4'         -0.8380    -2.9580    -2.5040 c3         1 OMP       0.142100
      8 O4'         -2.2570    -2.7490    -2.6020 os         1 OMP      -0.335600
      9 C3'         -0.3430    -3.3940    -3.8980 c3         1 OMP       0.123100
     10 O3'          0.2740    -4.6810    -3.8290 oh         1 OMP      -0.566800
     11 C2'         -1.6310    -3.4560    -4.7550 c3         1 OMP       0.100100
     12 O2'         -1.6170    -4.5990    -5.6130 oh         1 OMP      -0.545800
     13 C1'         -2.7340    -3.5890    -3.6750 c3         1 OMP       0.196500
     14 N1          -4.0160    -3.0950    -4.1850 n          1 OMP       0.090000
     15 C2          -4.1390    -1.8000    -4.5190 c          1 OMP       0.568500
     16 O2          -3.1810    -1.0640    -4.3920 o          1 OMP      -0.670500
     17 N3          -5.2930    -1.2980    -4.9910 ns         1 OMP      -0.149500
     18 C4          -6.3730    -2.0930    -5.1430 c          1 OMP       0.631700
     19 O4          -7.4190    -1.6400    -5.5690 o          1 OMP      -0.757500
     20 C5          -6.2650    -3.5110    -4.7820 cc         1 OMP      -0.379200
     21 C6          -5.0740    -3.9700    -4.3160 cd         1 OMP      -0.039600
     22 C7          -4.9150    -5.3970    -3.9460 c          1 OMP       0.973800
     23 O71         -4.4710    -6.1870    -4.7520 o          1 OMP      -0.865800
     24 O72         -5.2650    -5.8160    -2.7150 o          1 OMP      -0.865800
     25 H1'         -2.8180    -4.6170    -3.3430 h2         1 OMP       0.089700
     26 H2'         -1.7580    -2.5410    -5.3220 h1         1 OMP       0.033700
     27 H3'          0.3430    -2.6590    -4.3010 h1         1 OMP       0.007700
     28 H4'         -0.6310    -3.7370    -1.7810 h1         1 OMP       0.029700
     29 HO2'        -1.3760    -4.3340    -6.4850 ho         1 OMP       0.352000
     30 HO3'         1.1680    -4.6170    -4.1230 ho         1 OMP       0.359000
     31 H5'1         0.9260    -1.7890    -2.1310 h1         1 OMP      -0.025800
     32 H5'2        -0.4400    -0.8630    -2.7680 h1         1 OMP      -0.025800
     33 HN3         -5.3520    -0.3290    -5.2320 hn         1 OMP       0.182500
     34 H5          -7.1600    -4.1100    -4.6640 ha         1 OMP       0.143000
@<TRIPOS>BOND
     1     1     2 1   
     2     1     3 1   
     3     1     4 1   
     4     1     5 1   
     5     5     6 1   
     6     6     7 1   
     7     6    31 1   
     8     6    32 1   
     9     7     8 1   
    10     7     9 1   
    11     7    28 1   
    12     8    13 1   
    13     9    10 1   
    14     9    11 1   
    15     9    27 1   
    16    10    30 1   
    17    11    12 1   
    18    11    13 1   
    19    11    26 1   
    20    12    29 1   
    21    13    14 1   
    22    13    25 1   
    23    14    15 1   
    24    14    21 1   
    25    15    16 2   
    26    15    17 1   
    27    17    18 1   
    28    17    33 1   
    29    18    19 2   
    30    18    20 1   
    31    20    21 2   
    32    20    34 1   
    33    21    22 1   
    34    22    23 1   
    35    22    24 1   
@<TRIPOS>SUBSTRUCTURE
     1 OMP         1 TEMP              0 ****  ****    0 ROOT
