@<TRIPOS>MOLECULE
ON1
   27    28     1     0     0
SMALL
bcc


@<TRIPOS>ATOM
      1 C1          0.0360    0.3410    0.1150 ca        1 ON1     -0.098000
      2 N1         -2.8810    2.0150    0.0230 nb        1 ON1     -0.660000
      3 O1         -4.1070    5.2750    1.2290 oh        1 ON1     -0.507100
      4 CL1         3.8350   -0.1520    1.2690 cl        1 ON1     -0.100400
      5 C2          1.4330    0.2910    0.0980 ca        1 ON1      0.018400
      6 N2         -2.9480    2.0440    2.4590 nb        1 ON1     -0.771000
      7 O2         -3.7020    3.9950    3.5690 oh        1 ON1     -0.606300
      8 CL2         2.2560    0.6770   -1.3360 cl        1 ON1     -0.081400
      9 C3          2.1360   -0.0750    1.2560 ca        1 ON1      0.008400
     10 O3         -4.1190    3.2700   -2.3180 o         1 ON1     -0.798300
     11 C4          1.4350   -0.3840    2.4250 ca        1 ON1     -0.128000
     12 O4         -3.3870    5.1930   -1.4310 o         1 ON1     -0.798300
     13 C5          0.0440   -0.3370    2.4360 ca        1 ON1     -0.119000
     14 C6         -0.6650    0.0190    1.2820 ca        1 ON1     -0.051300
     15 C7         -2.1550    0.0310    1.2880 c3        1 ON1     -0.064400
     16 C8         -2.6920    1.4520    1.2540 ca        1 ON1      0.594300
     17 C9         -3.3650    3.2720   -0.0240 ca        1 ON1      0.336800
     18 C10        -3.6410    3.9980    1.1710 ca        1 ON1     -0.061500
     19 C11        -3.4180    3.3160    2.4020 ca        1 ON1      0.573600
     20 C12        -3.6400    3.9530   -1.3880 c         1 ON1      0.824100
     21 H1         -0.5220    0.6490   -0.7880 ha        1 ON1      0.185000
     22 H4          1.9840   -0.6600    3.3380 ha        1 ON1      0.139000
     23 H5         -0.5020   -0.5720    3.3620 ha        1 ON1      0.139000
     24 H7         -2.5340   -0.5260    0.3870 hc        1 ON1      0.066200
     25 H7A        -2.5420   -0.4970    2.2000 hc        1 ON1      0.066200
     26 H71        -4.0420    5.6650    0.3300 ho        1 ON1      0.479000
     27 H8         -3.4960    3.4170    4.3200 ho        1 ON1      0.415000
@<TRIPOS>BOND
     1    1    5 ar  
     2    1   14 ar  
     3    1   21 1   
     4    2   16 ar  
     5    2   17 ar  
     6    3   18 1   
     7    3   26 1   
     8    4    9 1   
     9    5    8 1   
    10    5    9 ar  
    11    6   16 ar  
    12    6   19 ar  
    13    7   19 1   
    14    7   27 1   
    15    9   11 ar  
    16   10   20 1   
    17   11   13 ar  
    18   11   22 1   
    19   12   20 1   
    20   13   14 ar  
    21   13   23 1   
    22   14   15 1   
    23   15   16 1   
    24   15   24 1   
    25   15   25 1   
    26   17   18 ar  
    27   17   20 1   
    28   18   19 ar  
@<TRIPOS>SUBSTRUCTURE
     1 ON1         1 TEMP              0 ****  ****    0 ROOT
