@<TRIPOS>MOLECULE
molecule
   27    28     1     0     0
SMALL
bcc


@<TRIPOS>ATOM
      1 C1           0.0000     0.0000     0.0000 ca         1 ON1      -0.090000
      2 N1          -2.9110     2.0310     0.0540 nb         1 ON1      -0.683000
      3 O1          -4.0460     5.2400     1.2210 oh         1 ON1      -0.464100
      4 Cl1          3.8100    -0.0000     1.2020 cl         1 ON1      -0.114400
      5 C2           1.3830     0.0000     0.0000 ca         1 ON1       0.030400
      6 N2          -2.9140     2.0250     2.3600 nb         1 ON1      -0.817000
      7 O2          -3.5690     3.8760     3.6080 oh         1 ON1      -0.629300
      8 Cl2          2.2510     0.0000    -1.5030 cl         1 ON1      -0.097400
      9 C3           2.0750     0.0000     1.1990 ca         1 ON1       0.023400
     10 O3          -3.3550     3.3030    -2.4370 o          1 ON1      -0.797300
     11 C4           1.3810     0.0000     2.3960 ca         1 ON1      -0.126000
     12 O4          -3.9940     5.1060    -1.3110 o          1 ON1      -0.797300
     13 C5          -0.0010     0.0000     2.3940 ca         1 ON1      -0.111000
     14 C6          -0.6920     0.0050     1.1970 ca         1 ON1      -0.059300
     15 C7          -2.1980     0.0060     1.1970 c3         1 ON1      -0.056400
     16 C8          -2.7000     1.4270     1.2010 ca         1 ON1       0.657300
     17 C9          -3.3550     3.2890     0.0120 ca         1 ON1       0.446800
     18 C10         -3.5950     3.9600     1.2140 ca         1 ON1      -0.110500
     19 C11         -3.3540     3.2720     2.4130 ca         1 ON1       0.590600
     20 C12         -3.5900     3.9610    -1.2850 c          1 ON1       0.776100
     21 H1          -0.5410     0.0040    -0.9380 ha         1 ON1       0.175000
     22 H4           1.9210    -0.0040     3.3350 ha         1 ON1       0.139000
     23 H5          -0.5430     0.0020     3.3320 ha         1 ON1       0.145000
     24 H7          -2.5590    -0.5020     0.3100 hc         1 ON1       0.067200
     25 H7A         -2.5600    -0.5070     2.0790 hc         1 ON1       0.067200
     26 H71         -3.3740     5.8080     1.5600 ho         1 ON1       0.410000
     27 H8          -4.1130     3.3240     4.1460 ho         1 ON1       0.424000
@<TRIPOS>BOND
     1     1     5 ar
     2     1    21 1
     3     2    16 ar
     4     3    18 1
     5     5     8 1
     6     9     4 1
     7     9     5 ar
     8    11     9 ar
     9    11    22 1
    10    12    20 1
    11    13    11 ar
    12    13    14 ar
    13    13    23 1
    14    14     1 ar
    15    15    14 1
    16    15    24 1
    17    15    25 1
    18    16     6 ar
    19    16    15 1
    20    17     2 ar
    21    17    18 ar
    22    18    19 ar
    23    19     6 ar
    24    19     7 1
    25    20    10 1
    26    20    17 1
    27     3    26 1
    28     7    27 1
@<TRIPOS>SUBSTRUCTURE
     1 ON1         1 TEMP              0 ****  ****    0 ROOT
