@<TRIPOS>MOLECULE
ON3
   71    75     1     0     0
SMALL
bcc


@<TRIPOS>ATOM
      1 C1          0.2360   -0.0970    0.0540 ca        1 ON3     -0.023300
      2 C2          1.4560    0.5790    0.0700 ca        1 ON3     -0.215500
      3 C3          2.2780    0.4920    1.2000 ca        1 ON3      0.137100
      4 C4          1.9120   -0.2690    2.3270 ca        1 ON3     -0.129300
      5 C5          0.6710   -0.9390    2.2780 ca        1 ON3      0.137100
      6 C6         -0.1630   -0.8570    1.1580 ca        1 ON3     -0.215500
      7 C9          2.7830   -0.3500    3.5190 c3        1 ON3     -0.029800
      8 O17         3.5020    1.1340    1.3030 os        1 ON3     -0.332900
      9 O18         0.3550   -1.6650    3.4130 os        1 ON3     -0.332900
     10 C19        -0.8300   -2.4510    3.3440 c3        1 ON3      0.112200
     11 C23        -0.6870   -0.0160   -1.1300 c3        1 ON3      0.199400
     12 O25        -0.1950    0.9800   -2.0140 oh        1 ON3     -0.611800
     13 C27        -0.7770   -1.3770   -1.8620 c3        1 ON3      0.109100
     14 O29        -1.7310   -2.1460   -1.1260 os        1 ON3     -0.412600
     15 C30        -1.5900   -3.5550   -1.2890 c3        1 ON3      0.139100
     16 C31        -2.9360   -4.1850   -0.8600 c3        1 ON3     -0.057600
     17 C32        -0.4980   -4.1160   -0.3460 c3        1 ON3     -0.057600
     18 C38        -2.5930   -5.1190    0.2490 ca        1 ON3     -0.082300
     19 C39        -1.2090   -5.0760    0.5450 ca        1 ON3     -0.082300
     20 C40        -0.6800   -5.8640    1.5550 ca        1 ON3     -0.121000
     21 C41        -1.5390   -6.7080    2.2720 ca        1 ON3     -0.136000
     22 C42        -2.8990   -6.7530    1.9790 ca        1 ON3     -0.136000
     23 C43        -3.4380   -5.9540    0.9620 ca        1 ON3     -0.121000
     24 C48        -1.2190   -1.2190   -3.3200 c3        1 ON3      0.104400
     25 O51        -2.3080   -0.2940   -3.3530 os        1 ON3     -0.360900
     26 C52        -4.9360   -0.5700   -6.6010 ca        1 ON3     -0.004300
     27 C53        -5.3880   -0.2500   -5.3150 ca        1 ON3     -0.105500
     28 C54        -4.5070   -0.1870   -4.2370 ca        1 ON3     -0.175000
     29 C55        -3.1490   -0.4420   -4.4550 ca        1 ON3      0.066100
     30 C56        -2.6750   -0.7770   -5.7300 ca        1 ON3     -0.175000
     31 C57        -3.5700   -0.8460   -6.7920 ca        1 ON3     -0.105500
     32 C62        -5.8470   -0.6570   -7.7510 cx        1 ON3     -0.182700
     33 C63        -7.1760    0.0570   -7.7430 cx        1 ON3     -0.123900
     34 C64        -6.0680    0.5660   -8.6140 cx        1 ON3     -0.123900
     35 C69        -5.7880   -2.0040   -8.5070 c         1 ON3      0.944600
     36 O70        -6.8600   -2.6570   -8.6250 o         1 ON3     -0.828800
     37 O71        -4.6760   -2.3620   -8.9860 o         1 ON3     -0.828800
     38 H1          1.7470    1.1780   -0.8060 ha        1 ON3      0.160500
     39 H2         -1.1290   -1.3840    1.1190 ha        1 ON3      0.160500
     40 H3          3.8580   -0.2480    3.2290 hc        1 ON3      0.044367
     41 H4          2.6390   -1.3260    4.0460 hc        1 ON3      0.044367
     42 H5          2.5310    0.4740    4.2320 hc        1 ON3      0.044367
     43 H6          3.1950    2.7160   -0.0390 h1        1 ON3      0.044867
     44 H7          4.9100    2.2900    0.4690 h1        1 ON3      0.044867
     45 H8          4.0110    1.2240   -0.7300 h1        1 ON3      0.044867
     46 H9         -1.7290   -1.7980    3.2260 h1        1 ON3      0.044867
     47 H10        -0.8520   -2.9730    4.3340 h1        1 ON3      0.044867
     48 H11        -0.7690   -3.1920    2.5080 h1        1 ON3      0.044867
     49 H12        -1.7240    0.2600   -0.7790 h1        1 ON3      0.074700
     50 H13        -0.9200    1.2010   -2.6160 ho        1 ON3      0.433000
     51 H14         0.2250   -1.8890   -1.8530 h1        1 ON3      0.052700
     52 H15        -1.3560   -3.8050   -2.3570 h1        1 ON3      0.053700
     53 H16        -3.4040   -4.7230   -1.7210 hc        1 ON3      0.071950
     54 H17        -3.6450   -3.3880   -0.5180 hc        1 ON3      0.071950
     55 H18        -0.0310   -3.2850    0.2440 hc        1 ON3      0.071950
     56 H19         0.3060   -4.6280   -0.9310 hc        1 ON3      0.071950
     57 H20         0.3930   -5.8330    1.7900 ha        1 ON3      0.134000
     58 H21        -1.1300   -7.3410    3.0730 ha        1 ON3      0.125500
     59 H22        -3.5610   -7.4220    2.5480 ha        1 ON3      0.125500
     60 H23        -4.5130   -5.9930    0.7340 ha        1 ON3      0.134000
     61 H24        -1.5260   -2.2090   -3.7470 h1        1 ON3      0.051200
     62 H25        -0.3740   -0.7900   -3.9210 h1        1 ON3      0.051200
     63 H28        -1.6100   -0.9930   -5.8890 ha        1 ON3      0.123500
     64 H29        -3.2390   -1.1640   -7.7990 ha        1 ON3      0.160000
     65 H30        -7.4810    0.6540   -6.8670 hc        1 ON3      0.058200
     66 H31        -8.0250   -0.4810   -8.2060 hc        1 ON3      0.058200
     67 H32        -5.5680    1.5120   -8.3450 hc        1 ON3      0.058200
     68 H33        -6.1270    0.4200   -9.7070 hc        1 ON3      0.058200
     69 H26        -6.4590   -0.0630   -5.1440 ha        1 ON3      0.160000
     70 C13         3.9120    1.8840    0.1660 c3        1 ON3      0.112200
     71 H27        -4.8630    0.0600   -3.2280 ha        1 ON3      0.123500
@<TRIPOS>BOND
     1    1    2 ar  
     2    1    6 ar  
     3    1   11 1   
     4    2    3 ar  
     5    2   38 1   
     6    3    4 ar  
     7    3    8 1   
     8    4    5 ar  
     9    4    7 1   
    10    5    6 ar  
    11    5    9 1   
    12    6   39 1   
    13    7   40 1   
    14    7   41 1   
    15    7   42 1   
    16    8   70 1   
    17    9   10 1   
    18   10   46 1   
    19   10   47 1   
    20   10   48 1   
    21   11   12 1   
    22   11   13 1   
    23   11   49 1   
    24   12   50 1   
    25   13   14 1   
    26   13   24 1   
    27   13   51 1   
    28   14   15 1   
    29   15   16 1   
    30   15   17 1   
    31   15   52 1   
    32   16   18 1   
    33   16   53 1   
    34   16   54 1   
    35   17   19 1   
    36   17   55 1   
    37   17   56 1   
    38   18   19 ar  
    39   18   23 ar  
    40   19   20 ar  
    41   20   21 ar  
    42   20   57 1   
    43   21   22 ar  
    44   21   58 1   
    45   22   23 ar  
    46   22   59 1   
    47   23   60 1   
    48   24   25 1   
    49   24   61 1   
    50   24   62 1   
    51   25   29 1   
    52   26   27 ar  
    53   26   31 ar  
    54   26   32 1   
    55   27   28 ar  
    56   27   69 1   
    57   28   29 ar  
    58   28   71 1   
    59   29   30 ar  
    60   30   31 ar  
    61   30   63 1   
    62   31   64 1   
    63   32   33 1   
    64   32   34 1   
    65   32   35 1   
    66   33   34 1   
    67   33   65 1   
    68   33   66 1   
    69   34   67 1   
    70   34   68 1   
    71   35   36 1   
    72   35   37 1   
    73   43   70 1   
    74   44   70 1   
    75   45   70 1   
@<TRIPOS>SUBSTRUCTURE
     1 ON3         1 TEMP              0 ****  ****    0 ROOT
