@<TRIPOS>MOLECULE
molecule
   71    75     1     0     0
SMALL
bcc


@<TRIPOS>ATOM
      1 C1           0.0000     0.0000     0.0000 ca         1 ON3      -0.044300
      2 C2           1.3810     0.0000     0.0000 ca         1 ON3      -0.231000
      3 C3           2.0770     0.0000     1.2010 ca         1 ON3       0.161100
      4 C4           1.3830     0.0000     2.4020 ca         1 ON3      -0.143300
      5 C5          -0.0040    -0.0010     2.3980 ca         1 ON3       0.161100
      6 C6          -0.6940    -0.0000     1.1950 ca         1 ON3      -0.231000
      7 C9           2.1350    -0.0010     3.7080 c3         1 ON3      -0.027800
      8 O17          3.4360     0.0000     1.2010 os         1 ON3      -0.330400
      9 O18         -0.6860    -0.0010     3.5740 os         1 ON3      -0.330400
     10 C19         -2.1130    -0.0020     3.4950 c3         1 ON3       0.128200
     11 C23         -0.7520     0.0060    -1.3060 c3         1 ON3       0.197400
     12 O25         -0.0760     0.8510    -2.2400 oh         1 ON3      -0.603800
     13 C27         -0.8190    -1.4170    -1.8620 c3         1 ON3       0.153100
     14 O29         -1.5580    -2.2460    -0.9630 os         1 ON3      -0.402600
     15 C30         -1.1930    -3.6270    -1.0110 c3         1 ON3       0.142100
     16 C31         -2.3860    -4.5240    -0.6180 c3         1 ON3      -0.046100
     17 C32         -0.1500    -3.9570     0.0780 c3         1 ON3      -0.046100
     18 C38         -1.7750    -5.6860     0.1350 ca         1 ON3      -0.090300
     19 C39         -0.4870    -5.3600     0.5360 ca         1 ON3      -0.090300
     20 C40          0.2660    -6.2790     1.2460 ca         1 ON3      -0.114500
     21 C41         -0.2590    -7.5180     1.5560 ca         1 ON3      -0.133500
     22 C42         -1.5420    -7.8440     1.1560 ca         1 ON3      -0.133500
     23 C43         -2.3010    -6.9290     0.4470 ca         1 ON3      -0.114500
     24 C48         -1.5150    -1.4000    -3.2260 c3         1 ON3       0.121400
     25 O51         -2.7940    -0.7750    -3.0990 os         1 ON3      -0.342900
     26 C52         -5.0790    -0.4790    -6.5220 ca         1 ON3      -0.043300
     27 C53         -5.5620     0.0150    -5.3250 ca         1 ON3      -0.086500
     28 C54         -4.8000    -0.0830    -4.1770 ca         1 ON3      -0.209500
     29 C55         -3.5470    -0.6770    -4.2270 ca         1 ON3       0.103100
     30 C56         -3.0640    -1.1720    -5.4300 ca         1 ON3      -0.209500
     31 C57         -3.8310    -1.0720    -6.5740 ca         1 ON3      -0.086500
     32 C62         -5.9160    -0.3760    -7.7710 cx         1 ON3      -0.153700
     33 C63         -7.2870     0.2920    -7.6500 cx         1 ON3      -0.137400
     34 C64         -6.1400     1.0190    -8.3580 cx         1 ON3      -0.137400
     35 C69         -5.7850    -1.5240    -8.7370 c          1 ON3       0.927600
     36 O70         -6.7430    -1.8860    -9.3790 o          1 ON3      -0.838300
     37 O71         -4.6040    -2.1470    -8.8840 o          1 ON3      -0.838300
     38 H1           1.9220     0.0000    -0.9390 ha         1 ON3       0.146500
     39 H2          -1.7770    -0.0010     1.1920 ha         1 ON3       0.146500
     40 H3           2.9470    -0.7170     3.6560 hc         1 ON3       0.042700
     41 H4           2.5360     0.9880     3.8940 hc         1 ON3       0.042700
     42 H5           1.4620    -0.2760     4.5120 hc         1 ON3       0.042700
     43 H6           3.8070    -0.8940    -0.6180 h1         1 ON3       0.041867
     44 H7           5.1570     0.0190     0.0690 h1         1 ON3       0.041867
     45 H8           3.7770     0.8750    -0.6330 h1         1 ON3       0.041867
     46 H9          -2.4490    -0.9160     3.0200 h1         1 ON3       0.041867
     47 H10         -2.5300     0.0600     4.4930 h1         1 ON3       0.041867
     48 H11         -2.4430     0.8500     2.9130 h1         1 ON3       0.041867
     49 H12         -1.7560     0.3790    -1.1430 h1         1 ON3       0.073700
     50 H13         -0.4170     1.7280    -2.1760 ho         1 ON3       0.414000
     51 H14          0.1840    -1.8090    -1.9740 h1         1 ON3       0.053700
     52 H15         -0.8190    -3.8980    -1.9910 h1         1 ON3       0.051700
     53 H16         -3.0510    -3.9750     0.0380 hc         1 ON3       0.067700
     54 H17         -2.8770    -4.8880    -1.5120 hc         1 ON3       0.067700
     55 H18          0.8430    -3.9450    -0.3550 hc         1 ON3       0.067700
     56 H19         -0.2600    -3.2680     0.9070 hc         1 ON3       0.067700
     57 H20          1.2720    -6.0250     1.5600 ha         1 ON3       0.128500
     58 H21          0.3340    -8.2350     2.1110 ha         1 ON3       0.124500
     59 H22         -1.9540    -8.8160     1.3990 ha         1 ON3       0.124500
     60 H23         -3.3060    -7.1860     0.1350 ha         1 ON3       0.128500
     61 H24         -0.9100    -0.8440    -3.9330 h1         1 ON3       0.047700
     62 H25         -1.6420    -2.4160    -3.5790 h1         1 ON3       0.047700
     63 H28         -2.0870    -1.6370    -5.4710 ha         1 ON3       0.117500
     64 H29         -3.4540    -1.4590    -7.5130 ha         1 ON3       0.170000
     65 H30         -7.5400     0.6660    -6.6650 hc         1 ON3       0.065450
     66 H31         -8.0600    -0.1040    -8.2980 hc         1 ON3       0.065450
     67 H32         -6.2120     1.0660    -9.4380 hc         1 ON3       0.065450
     68 H33         -5.6920     1.8360    -7.8050 hc         1 ON3       0.065450
     69 H26         -6.5400     0.4790    -5.2860 ha         1 ON3       0.170000
     70 C13          4.0830     0.0000    -0.0720 c3         1 ON3       0.128200
     71 H27         -5.1790     0.3040    -3.2400 ha         1 ON3       0.117500
@<TRIPOS>BOND
     1    70     8 1
     2     8     3 1
     3    22    21 ar
     4    22    23 ar
     5     7     4 1
     6    21    20 ar
     7    23    18 ar
     8     3     4 ar
     9     3     2 ar
    10     4     5 ar
    11    20    19 ar
    12     2     1 ar
    13    18    19 ar
    14    18    16 1
    15    19    17 1
    16     5     9 1
    17     5     6 ar
    18     9    10 1
    19     1     6 ar
    20     1    11 1
    21    16    15 1
    22    33    34 1
    23    33    32 1
    24    17    15 1
    25    34    32 1
    26    14    15 1
    27    14    13 1
    28    11    13 1
    29    11    12 1
    30    32    26 1
    31    32    35 1
    32    27    26 ar
    33    27    28 ar
    34    13    24 1
    35    26    31 ar
    36    28    29 ar
    37    31    30 ar
    38    36    35 1
    39    29    30 ar
    40    29    25 1
    41    35    37 1
    42    25    24 1
    43     2    38 1
    44     6    39 1
    45     7    40 1
    46     7    41 1
    47     7    42 1
    48    70    43 1
    49    70    44 1
    50    70    45 1
    51    10    46 1
    52    10    47 1
    53    10    48 1
    54    11    49 1
    55    12    50 1
    56    13    51 1
    57    15    52 1
    58    16    53 1
    59    16    54 1
    60    17    55 1
    61    17    56 1
    62    20    57 1
    63    21    58 1
    64    22    59 1
    65    23    60 1
    66    24    61 1
    67    24    62 1
    68    27    69 1
    69    28    71 1
    70    30    63 1
    71    31    64 1
    72    33    65 1
    73    33    66 1
    74    34    67 1
    75    34    68 1
@<TRIPOS>SUBSTRUCTURE
     1 ON3         1 TEMP              0 ****  ****    0 ROOT
