@<TRIPOS>MOLECULE
ON5
   57    57     1     0     0
SMALL
bcc


@<TRIPOS>ATOM
      1 C20         0.0470    0.0310   -0.0650 c3        1 ON5     -0.092100
      2 C19         1.5190    0.3340    0.0360 c3        1 ON5     -0.080400
      3 C18         2.0850   -0.0930    1.3740 c3        1 ON5     -0.078400
      4 C17         3.5640    0.2110    1.4670 c3        1 ON5     -0.080400
      5 C16         4.1250   -0.2050    2.8100 c3        1 ON5     -0.068400
      6 C15         5.6310    0.0470    2.8820 c3        1 ON5      0.171300
      7 O15         6.2470   -0.9160    2.0340 oh        1 ON5     -0.602800
      8 C14         6.1110   -0.0270    4.2970 c2        1 ON5     -0.206200
      9 C13         6.9140   -0.9800    4.7740 c2        1 ON5     -0.158200
     10 C12         7.3990   -1.0150    6.1770 c3        1 ON5     -0.076500
     11 C11         7.1120   -2.3740    6.8460 c3        1 ON5      0.144100
     12 O11         5.9290   -2.3450    7.6280 oh        1 ON5     -0.599800
     13 C10         8.2850   -2.6440    7.7910 c3        1 ON5     -0.088400
     14 C9          9.4540   -1.8070    7.2910 c3        1 ON5      0.063700
     15 CL9        10.7200   -2.8390    6.6000 cl        1 ON5     -0.216400
     16 C8          8.9230   -0.8100    6.2520 c3        1 ON5     -0.058700
     17 C7          9.2560    0.6260    6.6220 c3        1 ON5     -0.036200
     18 C6         10.7030    0.9270    6.5110 c2        1 ON5     -0.234200
     19 C5         11.1920    2.1720    6.4640 c2        1 ON5     -0.124200
     20 C4         10.3580    3.3960    6.5010 c3        1 ON5     -0.061200
     21 C3         11.1830    4.6660    6.5540 c3        1 ON5     -0.065400
     22 C2         10.3090    5.8950    6.6040 c3        1 ON5     -0.196400
     23 C1         11.1390    7.1810    6.4330 c         1 ON5      0.908600
     24 O1A        12.0410    7.2040    5.5460 o         1 ON5     -0.850800
     25 O1B        10.8600    8.1620    7.1810 o         1 ON5     -0.850800
     26 H1         -0.3490    0.3540   -1.0570 hc        1 ON5      0.030700
     27 H2         -0.5220    0.5670    0.7330 hc        1 ON5      0.030700
     28 H3         -0.1390   -1.0650    0.0500 hc        1 ON5      0.030700
     29 H4          2.0710   -0.1930   -0.7870 hc        1 ON5      0.039700
     30 H5          1.6880    1.4340   -0.1060 hc        1 ON5      0.039700
     31 H6          1.9160   -1.1930    1.5190 hc        1 ON5      0.037700
     32 H7          1.5380    0.4370    2.1990 hc        1 ON5      0.037700
     33 H8          3.7340    1.3080    1.3100 hc        1 ON5      0.048200
     34 H9          4.1180   -0.3320    0.6560 hc        1 ON5      0.048200
     35 H10         3.6260    0.3720    3.6310 hc        1 ON5      0.050200
     36 H11         3.9290   -1.2950    2.9810 hc        1 ON5      0.050200
     37 H12         5.8610    1.0800    2.4840 h1        1 ON5      0.046700
     38 H13         7.1970   -0.7460    2.0680 ho        1 ON5      0.404000
     39 H14         5.7480    0.7960    4.9350 ha        1 ON5      0.132000
     40 H15         7.2710   -1.8020    4.1300 ha        1 ON5      0.131000
     41 H16         6.8890   -0.2140    6.7850 hc        1 ON5      0.072700
     42 H17         7.0250   -3.1870    6.0730 h1        1 ON5      0.043700
     43 H18         5.2160   -2.0710    7.0390 ho        1 ON5      0.403000
     44 H19         8.0070   -2.3290    8.8310 hc        1 ON5      0.070200
     45 H20         8.5220   -3.7360    7.8190 hc        1 ON5      0.070200
     46 H21         9.9650   -1.2770    8.1340 h1        1 ON5      0.087700
     47 H22         9.3770   -1.0310    5.2470 hc        1 ON5      0.076700
     48 H23         8.9100    0.8390    7.6710 hc        1 ON5      0.050700
     49 H24         8.6750    1.3130    5.9450 hc        1 ON5      0.050700
     50 H25        11.3740    0.0550    6.4750 ha        1 ON5      0.118000
     51 H26        12.2800    2.3370    6.3880 ha        1 ON5      0.127000
     52 H27         9.6730    3.3550    7.3920 hc        1 ON5      0.039200
     53 H28         9.6990    3.4190    5.5900 hc        1 ON5      0.039200
     54 H29        11.8490    4.6440    7.4560 hc        1 ON5      0.047700
     55 H30        11.8490    4.7350    5.6530 hc        1 ON5      0.047700
     56 H31         9.7510    5.9400    7.5720 hc        1 ON5      0.018700
     57 H32         9.5570    5.8640    5.7750 hc        1 ON5      0.018700
@<TRIPOS>BOND
     1    1    2 1   
     2    1   26 1   
     3    1   27 1   
     4    1   28 1   
     5    2    3 1   
     6    2   29 1   
     7    2   30 1   
     8    3    4 1   
     9    3   31 1   
    10    3   32 1   
    11    4    5 1   
    12    4   33 1   
    13    4   34 1   
    14    5    6 1   
    15    5   35 1   
    16    5   36 1   
    17    6    7 1   
    18    6    8 1   
    19    6   37 1   
    20    7   38 1   
    21    8    9 2   
    22    8   39 1   
    23    9   10 1   
    24    9   40 1   
    25   10   11 1   
    26   10   16 1   
    27   10   41 1   
    28   11   12 1   
    29   11   13 1   
    30   11   42 1   
    31   12   43 1   
    32   13   14 1   
    33   13   44 1   
    34   13   45 1   
    35   14   15 1   
    36   14   16 1   
    37   14   46 1   
    38   16   17 1   
    39   16   47 1   
    40   17   18 1   
    41   17   48 1   
    42   17   49 1   
    43   18   19 2   
    44   18   50 1   
    45   19   20 1   
    46   19   51 1   
    47   20   21 1   
    48   20   52 1   
    49   20   53 1   
    50   21   22 1   
    51   21   54 1   
    52   21   55 1   
    53   22   23 1   
    54   22   56 1   
    55   22   57 1   
    56   23   24 1   
    57   23   25 1   
@<TRIPOS>SUBSTRUCTURE
     1 ON5         1 TEMP              0 ****  ****    0 ROOT
