@<TRIPOS>MOLECULE
molecule
   72    75     1     0     0
SMALL
bcc


@<TRIPOS>ATOM
      1 O5           0.0000     0.0000     0.0000 o          1 ON7      -0.528000
      2 C28          1.2160     0.0000     0.0000 c          1 ON7       0.671700
      3 O4           1.8890     0.0000     1.1680 os         1 ON7      -0.454900
      4 C29          1.1010    -0.1100     2.3830 c3         1 ON7       0.143700
      5 C25          1.9520    -0.0040    -1.2730 cc         1 ON7      -0.201600
      6 C24          1.3830    -0.1090    -2.6220 cc         1 ON7      -0.014300
      7 C30         -0.0750    -0.2340    -2.9800 c3         1 ON7      -0.123100
      8 C31         -0.6960     1.1380    -3.0450 c          1 ON7       0.903600
      9 O7          -0.0230     2.1160    -2.8230 o          1 ON7      -0.851800
     10 O6          -1.9960     1.2720    -3.3500 o          1 ON7      -0.851800
     11 C23          2.4220    -0.0720    -3.4750 cd         1 ON7      -0.168300
     12 C26          3.3150     0.0950    -1.4440 cd         1 ON7      -0.123300
     13 N1           3.5800     0.0480    -2.7630 na         1 ON7      -0.037100
     14 C13          4.9190     0.1230    -3.3510 c3         1 ON7       0.037300
     15 C8           5.5830    -1.2550    -3.2860 c3         1 ON7      -0.081700
     16 C6           4.7890    -2.2440    -4.1400 c3         1 ON7       0.195400
     17 O2           3.4520    -2.3370    -3.6450 oh         1 ON7      -0.568800
     18 C3           5.4430    -3.6010    -4.0760 ca         1 ON7      -0.055300
     19 C2           5.1400    -4.4640    -3.0400 ca         1 ON7      -0.241000
     20 C5           6.3410    -3.9820    -5.0560 ca         1 ON7      -0.241000
     21 C7           6.9440    -5.2300    -4.9980 ca         1 ON7       0.166100
     22 O3           7.8260    -5.6040    -5.9610 os         1 ON7      -0.330400
     23 C11          8.0870    -4.6620    -7.0030 c3         1 ON7       0.128700
     24 C9           6.6450    -6.0960    -3.9570 ca         1 ON7      -0.145300
     25 C10          7.2990    -7.4520    -3.8930 c3         1 ON7      -0.027800
     26 C1           5.7360    -5.7160    -2.9810 ca         1 ON7       0.166100
     27 O1           5.4420    -6.5610    -1.9600 os         1 ON7      -0.330400
     28 C4           4.4960    -6.1040    -0.9900 c3         1 ON7       0.128700
     29 C12          7.0140    -1.1560    -3.8160 c3         1 ON7      -0.078400
     30 C14          7.8620    -0.3280    -2.8470 c3         1 ON7      -0.072700
     31 C16          9.3560    -0.4010    -3.2250 c3         1 ON7      -0.034600
     32 C18          9.9120     0.9700    -2.9040 ca         1 ON7      -0.091800
     33 C19         11.2220     1.3910    -2.7380 ca         1 ON7      -0.114500
     34 C20         11.4940     2.7130    -2.4440 ca         1 ON7      -0.132500
     35 C21         10.4590     3.6190    -2.3140 ca         1 ON7      -0.132500
     36 C22          9.1530     3.2010    -2.4790 ca         1 ON7      -0.114500
     37 C17          8.8770     1.8760    -2.7740 ca         1 ON7      -0.091800
     38 C15          7.5490     1.1760    -2.9950 c3         1 ON7      -0.034600
     39 H1           0.4360     0.7420     2.4600 h1         1 ON7       0.036033
     40 H2           0.5170    -1.0220     2.3530 h1         1 ON7       0.036033
     41 H3           1.7610    -0.1320     3.2410 h1         1 ON7       0.036033
     42 H4          -0.1700    -0.7200    -3.9440 hc         1 ON7       0.042700
     43 H5          -0.5830    -0.8250    -2.2270 hc         1 ON7       0.042700
     44 H7           2.3510    -0.1300    -4.5550 h4         1 ON7       0.154000
     45 H8           4.0490     0.1880    -0.6520 h4         1 ON7       0.153000
     46 H9           5.5160     0.8380    -2.7990 h1         1 ON7       0.061200
     47 H10          4.8420     0.4380    -4.3850 h1         1 ON7       0.061200
     48 H11          5.6020    -1.5980    -2.2590 hc         1 ON7       0.076700
     49 H12          4.7710    -1.9010    -5.1680 h1         1 ON7       0.035700
     50 H13          2.9350    -2.8640    -4.2320 ho         1 ON7       0.405000
     51 H14          4.4150    -4.1740    -2.2890 ha         1 ON7       0.147000
     52 H15          6.5350    -3.3260    -5.8960 ha         1 ON7       0.147000
     53 H16          8.7710    -5.0980    -7.7210 h1         1 ON7       0.042867
     54 H17          7.1580    -4.4050    -7.4990 h1         1 ON7       0.042867
     55 H18          8.5290    -3.7680    -6.5800 h1         1 ON7       0.042867
     56 H19          8.0220    -7.4660    -3.0860 hc         1 ON7       0.043033
     57 H20          7.8000    -7.6560    -4.8310 hc         1 ON7       0.043033
     58 H21          6.5450    -8.2090    -3.7140 hc         1 ON7       0.043033
     59 H22          4.8760    -5.2110    -0.5080 h1         1 ON7       0.042867
     60 H23          4.3400    -6.8770    -0.2470 h1         1 ON7       0.042867
     61 H24          3.5570    -5.8790    -1.4800 h1         1 ON7       0.042867
     62 H25          7.0070    -0.6790    -4.7880 hc         1 ON7       0.050700
     63 H26          7.4360    -2.1500    -3.9040 hc         1 ON7       0.050700
     64 H27          7.7110    -0.6490    -1.8230 hc         1 ON7       0.066700
     65 H28          9.8500    -1.1460    -2.6130 hc         1 ON7       0.058450
     66 H29          9.4530    -0.5930    -4.2870 hc         1 ON7       0.058450
     67 H30         12.0340     0.6810    -2.8400 ha         1 ON7       0.129000
     68 H31         12.5190     3.0390    -2.3150 ha         1 ON7       0.125500
     69 H32         10.6710     4.6560    -2.0830 ha         1 ON7       0.125500
     70 H33          8.3420     3.9120    -2.3770 ha         1 ON7       0.129000
     71 H34          7.1760     1.3860    -3.9910 hc         1 ON7       0.058450
     72 H35          6.8320     1.4860    -2.2450 hc         1 ON7       0.058450
@<TRIPOS>BOND
     1    28    27 1
     2    35    34 ar
     3    35    36 ar
     4    27    26 1
     5    25    24 1
     6    34    33 ar
     7    36    37 ar
     8    26    24 ar
     9    26    19 ar
    10    24    21 ar
    11    33    32 ar
    12    37    32 ar
    13    37    38 1
    14    19    18 ar
    15    32    31 1
    16    21    22 1
    17    21    20 ar
    18    22    23 1
    19    38    30 1
    20    18    20 ar
    21    18    16 1
    22    31    30 1
    23    30    29 1
    24    29    15 1
    25    16    15 1
    26    16    17 1
    27     4     3 1
    28     3     2 1
    29    15    14 1
    30     2     5 1
    31     2     1 2
    32    12     5 2
    33    12    13 1
    34     5     6 1
    35    13    14 1
    36    13    11 1
    37     6    11 2
    38     6     7 1
    39     7     8 1
    40     8     9 1
    41     8    10 1
    42     4    39 1
    43     4    40 1
    44     4    41 1
    45     7    42 1
    46     7    43 1
    47    11    44 1
    48    12    45 1
    49    14    46 1
    50    14    47 1
    51    15    48 1
    52    16    49 1
    53    17    50 1
    54    19    51 1
    55    20    52 1
    56    23    53 1
    57    23    54 1
    58    23    55 1
    59    25    56 1
    60    25    57 1
    61    25    58 1
    62    28    59 1
    63    28    60 1
    64    28    61 1
    65    29    62 1
    66    29    63 1
    67    30    64 1
    68    31    65 1
    69    31    66 1
    70    33    67 1
    71    34    68 1
    72    35    69 1
    73    36    70 1
    74    38    71 1
    75    38    72 1
@<TRIPOS>SUBSTRUCTURE
     1 ON7         1 TEMP              0 ****  ****    0 ROOT
