@<TRIPOS>MOLECULE
ON7
   72    75     1     0     0
SMALL
bcc


@<TRIPOS>ATOM
      1 O5         -0.6760    0.7020   -0.1180 o         1 ON7     -0.558000
      2 C28         0.5530    0.8000   -0.1960 c         1 ON7      0.687700
      3 O4          1.1960    1.2450    0.9530 os        1 ON7     -0.466900
      4 C29         0.3680    1.4990    2.0800 c3        1 ON7      0.134700
      5 C25         1.4550    0.5420   -1.2860 cc        1 ON7     -0.223600
      6 C24         1.1210    0.0220   -2.5960 cc        1 ON7     -0.033300
      7 C30        -0.1600   -0.4810   -3.0990 c3        1 ON7     -0.151100
      8 C31        -0.0260   -1.7630   -3.9500 c         1 ON7      0.919600
      9 O7          1.1200   -2.1530   -4.3400 o         1 ON7     -0.852300
     10 O6         -1.0930   -2.3640   -4.2480 o         1 ON7     -0.852300
     11 C23         2.3170   -0.0130   -3.3220 cd        1 ON7     -0.164300
     12 C26         2.8500    0.7500   -1.2580 cd        1 ON7     -0.101300
     13 N1          3.3680    0.4360   -2.5060 na        1 ON7     -0.065100
     14 C13         4.7550    0.2670   -2.8180 c3        1 ON7      0.043300
     15 C8          5.3330   -1.1440   -2.5930 c3        1 ON7     -0.099700
     16 C6          4.5340   -2.1960   -3.4000 c3        1 ON7      0.201400
     17 O2          3.4810   -2.6410   -2.5650 oh        1 ON7     -0.629800
     18 C3          5.3690   -3.3850   -3.8060 ca        1 ON7     -0.024300
     19 C2          5.4450   -4.5060   -2.9780 ca        1 ON7     -0.210500
     20 C5          6.0430   -3.3740   -5.0320 ca        1 ON7     -0.210500
     21 C7          6.8000   -4.4860   -5.4150 ca        1 ON7      0.135100
     22 O3          7.5150   -4.5480   -6.6010 os        1 ON7     -0.337400
     23 C11         7.2230   -3.5350   -7.5550 c3        1 ON7      0.115200
     24 C9          6.9070   -5.6290   -4.5960 ca        1 ON7     -0.132300
     25 C10         7.7060   -6.7980   -5.0180 c3        1 ON7     -0.027800
     26 C1          6.2040   -5.6130   -3.3760 ca        1 ON7      0.135100
     27 O1          6.3410   -6.7530   -2.6000 os        1 ON7     -0.337400
     28 C4          5.4410   -6.8660   -1.5030 c3        1 ON7      0.115200
     29 C12         6.8120   -1.1470   -2.9480 c3        1 ON7     -0.077400
     30 C14         7.6640   -0.2480   -2.0690 c3        1 ON7     -0.063700
     31 C16         9.0960   -0.8110   -1.9160 c3        1 ON7     -0.037600
     32 C18        10.0120    0.3100   -2.2680 ca        1 ON7     -0.081300
     33 C19        11.3980    0.3360   -2.2430 ca        1 ON7     -0.121500
     34 C20        12.0580    1.5090   -2.6310 ca        1 ON7     -0.136500
     35 C21        11.3370    2.6290   -3.0350 ca        1 ON7     -0.136500
     36 C22         9.9370    2.6070   -3.0620 ca        1 ON7     -0.121500
     37 C17         9.2800    1.4480   -2.6780 ca        1 ON7     -0.081300
     38 C15         7.8140    1.1870   -2.6190 c3        1 ON7     -0.037600
     39 H1          1.0840    1.8190    2.8760 h1        1 ON7      0.036033
     40 H2         -0.3650    2.3090    1.8450 h1        1 ON7      0.036033
     41 H3         -0.1800    0.5710    2.3750 h1        1 ON7      0.036033
     42 H4         -0.8560   -0.6870   -2.2440 hc        1 ON7      0.056200
     43 H5         -0.6470    0.2940   -3.7490 hc        1 ON7      0.056200
     44 H7          2.4710   -0.3800   -4.3410 h4        1 ON7      0.204000
     45 H8          3.4680    1.1110   -0.4360 h4        1 ON7      0.162000
     46 H9          4.9010    0.5440   -3.9010 h1        1 ON7      0.048700
     47 H10         5.3410    0.9910   -2.1820 h1        1 ON7      0.048700
     48 H11         5.2190   -1.4110   -1.5040 hc        1 ON7      0.077700
     49 H12         4.1270   -1.7190   -4.3380 h1        1 ON7      0.060700
     50 H13         2.6370   -2.5120   -3.0460 ho        1 ON7      0.483000
     51 H14         4.8740   -4.5020   -2.0370 ha        1 ON7      0.150500
     52 H15         5.9580   -2.4950   -5.6860 ha        1 ON7      0.150500
     53 H16         6.1270   -3.4890   -7.7700 h1        1 ON7      0.042200
     54 H17         7.7900   -3.8590   -8.4640 h1        1 ON7      0.042200
     55 H18         7.5930   -2.5430   -7.1970 h1        1 ON7      0.042200
     56 H19         7.0930   -7.4580   -5.6830 hc        1 ON7      0.041700
     57 H20         8.6100   -6.4700   -5.5900 hc        1 ON7      0.041700
     58 H21         8.0350   -7.3960   -4.1330 hc        1 ON7      0.041700
     59 H22         5.6240   -7.9020   -1.1210 h1        1 ON7      0.042200
     60 H23         5.6900   -6.1100   -0.7180 h1        1 ON7      0.042200
     61 H24         4.3820   -6.7480   -1.8370 h1        1 ON7      0.042200
     62 H25         7.1860   -2.2030   -2.8360 hc        1 ON7      0.053700
     63 H26         6.9410   -0.8680   -4.0270 hc        1 ON7      0.053700
     64 H27         7.1960   -0.1910   -1.0490 hc        1 ON7      0.054700
     65 H28         9.2680   -1.6820   -2.5990 hc        1 ON7      0.056950
     66 H29         9.2700   -1.1610   -0.8670 hc        1 ON7      0.056950
     67 H30        11.9710   -0.5470   -1.9270 ha        1 ON7      0.131000
     68 H31        13.1570    1.5410   -2.6150 ha        1 ON7      0.123500
     69 H32        11.8690    3.5430   -3.3380 ha        1 ON7      0.123500
     70 H33         9.3730    3.4940   -3.3830 ha        1 ON7      0.131000
     71 H34         7.3110    1.9250   -1.9440 hc        1 ON7      0.056950
     72 H35         7.3520    1.2830   -3.6350 hc        1 ON7      0.056950
@<TRIPOS>BOND
     1    1    2 2   
     2    2    3 1   
     3    2    5 1   
     4    3    4 1   
     5    4   39 1   
     6    4   40 1   
     7    4   41 1   
     8    5    6 1   
     9    5   12 2   
    10    6    7 1   
    11    6   11 2   
    12    7    8 1   
    13    7   42 1   
    14    7   43 1   
    15    8    9 1   
    16    8   10 1   
    17   11   13 1   
    18   11   44 1   
    19   12   13 1   
    20   12   45 1   
    21   13   14 1   
    22   14   15 1   
    23   14   46 1   
    24   14   47 1   
    25   15   16 1   
    26   15   29 1   
    27   15   48 1   
    28   16   17 1   
    29   16   18 1   
    30   16   49 1   
    31   17   50 1   
    32   18   19 ar  
    33   18   20 ar  
    34   19   26 ar  
    35   19   51 1   
    36   20   21 ar  
    37   20   52 1   
    38   21   22 1   
    39   21   24 ar  
    40   22   23 1   
    41   23   53 1   
    42   23   54 1   
    43   23   55 1   
    44   24   25 1   
    45   24   26 ar  
    46   25   56 1   
    47   25   57 1   
    48   25   58 1   
    49   26   27 1   
    50   27   28 1   
    51   28   59 1   
    52   28   60 1   
    53   28   61 1   
    54   29   30 1   
    55   29   62 1   
    56   29   63 1   
    57   30   31 1   
    58   30   38 1   
    59   30   64 1   
    60   31   32 1   
    61   31   65 1   
    62   31   66 1   
    63   32   33 ar  
    64   32   37 ar  
    65   33   34 ar  
    66   33   67 1   
    67   34   35 ar  
    68   34   68 1   
    69   35   36 ar  
    70   35   69 1   
    71   36   37 ar  
    72   36   70 1   
    73   37   38 1   
    74   38   71 1   
    75   38   72 1   
@<TRIPOS>SUBSTRUCTURE
     1 ON7         1 TEMP              0 ****  ****    0 ROOT
