@<TRIPOS>MOLECULE
molecule
   77    80     1     0     0
SMALL
bcc


@<TRIPOS>ATOM
      1 C30          0.0000     0.0000     0.0000 c3         1 ON9      -0.185100
      2 C31          2.4240     3.5770     2.1130 c3         1 ON9       0.128700
      3 C28          2.8960    -3.5750     1.8460 c3         1 ON9       0.128700
      4 C27         10.4340    -2.4720     6.1060 c3         1 ON9       0.142700
      5 C29          1.5080     0.0000     0.0000 c          1 ON9       0.608700
      6 C24          6.4500    -4.7340     9.6960 c3         1 ON9      -0.173400
      7 C25          6.5260    -6.1830    10.1030 c          1 ON9       0.894600
      8 C21          5.7920    -3.1810     7.8770 cc         1 ON9      -0.053300
      9 C1           2.2400     0.0000     1.2690 ca         1 ON9      -0.225600
     10 O6           2.1150    -0.0000    -1.0510 o          1 ON9      -0.520100
     11 C2           2.6770    -1.2090     1.8360 ca         1 ON9       0.199100
     12 C20          6.8640    -2.3800     7.2750 cd         1 ON9      -0.226600
     13 C22          4.7290    -2.3680     7.9880 cd         1 ON9      -0.206300
     14 C3           3.3670    -1.1950     3.0350 ca         1 ON9      -0.247500
     15 O3           9.1050    -1.9650     6.3970 os         1 ON9      -0.452900
     16 C6           4.3820     0.0030     4.9810 c3         1 ON9       0.186400
     17 O2           8.5660    -3.9690     7.1860 o          1 ON9      -0.522000
     18 C5           3.2050     1.1990     3.1270 ca         1 ON9      -0.247500
     19 C8           2.4990    -1.2270     6.0680 c3         1 ON9      -0.084400
     20 C7           3.3870     0.0160     6.1430 c3         1 ON9      -0.078700
     21 C11         -0.7170    -0.8540     6.0770 ca         1 ON9      -0.090800
     22 C4           3.6290     0.0020     3.6750 ca         1 ON9      -0.035300
     23 O1           7.0070    -6.5160    11.3100 o          1 ON9      -0.857800
     24 C9           1.4320    -1.1580     7.1630 c3         1 ON9      -0.075700
     25 C13          0.6070    -2.4610     7.2080 c3         1 ON9      -0.033100
     26 C10          0.3620    -0.0990     6.8210 c3         1 ON9      -0.033100
     27 C12         -0.5780    -2.2110     6.2990 ca         1 ON9      -0.090800
     28 C17         -1.7390    -0.3890     5.2650 ca         1 ON9      -0.115000
     29 O4           5.2130     1.1630     5.0510 oh         1 ON9      -0.612800
     30 C16         -2.6210    -1.2780     4.6820 ca         1 ON9      -0.132500
     31 C15         -2.4850    -2.6350     4.9080 ca         1 ON9      -0.132500
     32 C14         -1.4620    -3.1000     5.7120 ca         1 ON9      -0.115000
     33 C18          4.1520     0.0170     7.4680 c3         1 ON9       0.044300
     34 C19          6.3320    -1.1250     7.0740 cc         1 ON9      -0.116300
     35 C            2.5160     1.2120     1.9260 ca         1 ON9       0.199100
     36 N            5.0590    -1.1330     7.5100 na         1 ON9      -0.052100
     37 O            6.1530    -7.0440     9.3420 o          1 ON9      -0.857800
     38 H1          -0.3610    -0.4410     0.9210 hc         1 ON9       0.059367
     39 H2          -0.3610     1.0180    -0.0790 hc         1 ON9       0.059367
     40 H3          -0.3610    -0.5770    -0.8430 hc         1 ON9       0.059367
     41 H4           3.4990     3.6660     2.2090 h1         1 ON9       0.046033
     42 H5           2.0350     4.4420     1.5890 h1         1 ON9       0.046033
     43 H6           1.9770     3.5220     3.0990 h1         1 ON9       0.046033
     44 H7           3.9630    -3.4950     2.0100 h1         1 ON9       0.046033
     45 H8           2.6920    -4.4210     1.2000 h1         1 ON9       0.046033
     46 H9           2.3930    -3.7160     2.7950 h1         1 ON9       0.046033
     47 H10         10.3590    -3.3130     5.4260 h1         1 ON9       0.041700
     48 H11         10.9080    -2.7940     7.0250 h1         1 ON9       0.041700
     49 H12         11.0270    -1.6900     5.6480 h1         1 ON9       0.041700
     50 H13          4.8750    -5.0610     8.2700 hc         1 ON9       0.061700
     51 H14          6.5050    -5.1670     7.5910 hc         1 ON9       0.061700
     52 H15          7.4440    -4.3020     9.7100 hc         1 ON9       0.032700
     53 H16          5.8140    -4.1970    10.3890 hc         1 ON9       0.032700
     54 H17          3.7650    -2.6460     8.3970 h4         1 ON9       0.169000
     55 H18          3.7050    -2.1260     3.4740 ha         1 ON9       0.150500
     56 H19          4.9980    -0.8860     5.0430 h1         1 ON9       0.070700
     57 H20          3.4180     2.1310     3.6370 ha         1 ON9       0.150500
     58 H21          2.0190    -1.2690     5.0980 hc         1 ON9       0.066700
     59 H22          3.1050    -2.1130     6.2100 hc         1 ON9       0.066700
     60 H23          2.7710     0.9050     6.0810 hc         1 ON9       0.067700
     61 H25          1.8760    -0.9540     8.1300 hc         1 ON9       0.061700
     62 H26          1.1990    -3.2800     6.8170 hc         1 ON9       0.059200
     63 H27          0.2580    -2.6350     8.2190 hc         1 ON9       0.059200
     64 H28          0.7910     0.6550     6.1730 hc         1 ON9       0.059200
     65 H29         -0.0470     0.3120     7.7360 hc         1 ON9       0.059200
     66 H30         -1.8470     0.6740     5.0870 ha         1 ON9       0.127500
     67 H31          5.9270     1.0750     4.4420 ho         1 ON9       0.412000
     68 H32         -3.4230    -0.9120     4.0520 ha         1 ON9       0.125500
     69 H33         -3.1770    -3.3330     4.4520 ha         1 ON9       0.125500
     70 H34         -1.3550    -4.1640     5.8890 ha         1 ON9       0.127500
     71 H35          3.4500    -0.0470     8.2900 h1         1 ON9       0.066700
     72 H36          4.7260     0.9320     7.5530 h1         1 ON9       0.066700
     73 H37          6.8500    -0.2760     6.6450 h4         1 ON9       0.170000
     74 O5           2.4210    -2.3850     1.2100 os         1 ON9      -0.325400
     75 O7           2.1060     2.3870     1.3890 os         1 ON9      -0.325400
     76 C26          8.2290    -2.8250     6.9520 c          1 ON9       0.666700
     77 C23          5.8690    -4.6300     8.2840 c3         1 ON9      -0.002100
@<TRIPOS>BOND
     1     1     5 1
     2     3    74 1
     3    31    30 ar
     4    31    32 ar
     5    74    11 1
     6    30    28 ar
     7    10     5 2
     8     5     9 1
     9    32    27 ar
    10    11     9 ar
    11    11    14 ar
    12    28    21 ar
    13     9    35 ar
    14    27    21 ar
    15    27    25 1
    16    14    22 ar
    17    21    26 1
    18    35    75 1
    19    35    18 ar
    20    75     2 1
    21    25    24 1
    22    22    18 ar
    23    22    16 1
    24    26    24 1
    25     4    15 1
    26    24    19 1
    27    19    20 1
    28    16    20 1
    29    16    29 1
    30    15    76 1
    31    20    33 1
    32    76    12 1
    33    76    17 2
    34    34    12 2
    35    34    36 1
    36    12     8 1
    37    36    33 1
    38    36    13 1
    39     8    13 2
    40     8    77 1
    41    77     6 1
    42     6     7 1
    43     7    37 1
    44     7    23 1
    45     1    38 1
    46     1    39 1
    47     1    40 1
    48     2    41 1
    49     2    42 1
    50     2    43 1
    51     3    44 1
    52     3    45 1
    53     3    46 1
    54     4    47 1
    55     4    48 1
    56     4    49 1
    57    77    50 1
    58    77    51 1
    59     6    52 1
    60     6    53 1
    61    13    54 1
    62    14    55 1
    63    16    56 1
    64    18    57 1
    65    19    58 1
    66    19    59 1
    67    20    60 1
    68    24    61 1
    69    25    62 1
    70    25    63 1
    71    26    64 1
    72    26    65 1
    73    28    66 1
    74    29    67 1
    75    30    68 1
    76    31    69 1
    77    32    70 1
    78    33    71 1
    79    33    72 1
    80    34    73 1
@<TRIPOS>SUBSTRUCTURE
     1 ON9         1 TEMP              0 ****  ****    0 ROOT
