@<TRIPOS>MOLECULE
ON9
   77    80     1     0     0
SMALL
bcc


@<TRIPOS>ATOM
      1 C30         0.5130   -0.5430   -0.3570 c3        1 ON9     -0.196100
      2 C31         2.4740    3.6530    1.8240 c3        1 ON9      0.113200
      3 C28         3.1870   -3.4760    1.3770 c3        1 ON9      0.113200
      4 C27        10.6660   -2.0860    6.2740 c3        1 ON9      0.133700
      5 C29         1.8520    0.1230   -0.3190 c         1 ON9      0.615700
      6 C24         5.0800   -5.0010    9.2600 c3        1 ON9     -0.188400
      7 C25         3.6900   -5.0130    8.6100 c         1 ON9      0.903600
      8 C21         6.1240   -3.1350    7.9610 cc        1 ON9     -0.070300
      9 C1          2.5290    0.1000    0.9990 ca        1 ON9     -0.222600
     10 O6          2.3540    0.6540   -1.3130 o         1 ON9     -0.531100
     11 C2          2.9980   -1.1050    1.5600 ca        1 ON9      0.181100
     12 C20         7.1880   -2.3280    7.4030 cc        1 ON9     -0.232600
     13 C22         5.0000   -2.3030    8.0530 cd        1 ON9     -0.161300
     14 C3          3.6590   -1.1230    2.7960 ca        1 ON9     -0.228500
     15 O3          9.3100   -1.7530    6.5420 os        1 ON9     -0.463900
     16 C6          4.5570    0.0460    4.8220 c3        1 ON9      0.173400
     17 O2          9.1280   -3.7960    7.4010 o         1 ON9     -0.563000
     18 C5          3.3750    1.2770    2.9740 ca        1 ON9     -0.228500
     19 C8          2.7690   -1.3370    5.9190 c3        1 ON9     -0.087400
     20 C7          3.5980   -0.0680    6.0200 c3        1 ON9     -0.067700
     21 C11        -0.7320   -1.1470    6.7930 ca        1 ON9     -0.073300
     22 C4          3.8390    0.0700    3.4990 ca        1 ON9     -0.035300
     23 O1          3.4520   -5.8160    7.6660 o         1 ON9     -0.858300
     24 C9          1.6590   -1.4240    6.9460 c3        1 ON9     -0.060700
     25 C13         0.9860   -2.8130    6.9070 c3        1 ON9     -0.052100
     26 C10         0.5460   -0.3790    6.7270 c3        1 ON9     -0.052100
     27 C12        -0.4770   -2.5360    6.9040 ca        1 ON9     -0.073300
     28 C17        -2.0310   -0.6670    6.7600 ca        1 ON9     -0.124500
     29 O4          5.2930    1.2540    5.0140 oh        1 ON9     -0.608800
     30 C16        -3.0900   -1.5810    6.8420 ca        1 ON9     -0.145000
     31 C15        -2.8410   -2.9460    6.9560 ca        1 ON9     -0.145000
     32 C14        -1.5280   -3.4350    6.9890 ca        1 ON9     -0.124500
     33 C18         4.3980    0.0280    7.3350 c3        1 ON9      0.039300
     34 C19         6.6570   -1.0440    7.1540 cd        1 ON9     -0.112300
     35 C           2.7270    1.2860    1.7330 ca        1 ON9      0.181100
     36 N           5.3370   -1.0290    7.5740 na        1 ON9     -0.058100
     37 O           2.8190   -4.1980    9.0560 o         1 ON9     -0.858300
     38 H1         -0.1720   -0.0480    0.3730 hc        1 ON9      0.065033
     39 H2          0.0690   -0.4800   -1.3790 hc        1 ON9      0.065033
     40 H3          0.6290   -1.6170   -0.0680 hc        1 ON9      0.065033
     41 H4          2.0170    4.4200    1.1490 h1        1 ON9      0.048867
     42 H5          1.9790    3.6630    2.8250 h1        1 ON9      0.048867
     43 H6          3.5730    3.8220    1.9270 h1        1 ON9      0.048867
     44 H7          2.8660   -4.2300    0.6150 h1        1 ON9      0.048867
     45 H8          2.6710   -3.6550    2.3520 h1        1 ON9      0.048867
     46 H9          4.2960   -3.4940    1.5070 h1        1 ON9      0.048867
     47 H10        11.0800   -1.1680    5.7870 h1        1 ON9      0.037367
     48 H11        10.7190   -2.9660    5.5890 h1        1 ON9      0.037367
     49 H12        11.2030   -2.3170    7.2260 h1        1 ON9      0.037367
     50 H13         7.1800   -4.8070    8.7250 hc        1 ON9      0.053200
     51 H14         6.0550   -5.1590    7.3470 hc        1 ON9      0.053200
     52 H15         5.0610   -4.3270   10.1530 hc        1 ON9      0.030200
     53 H16         5.3060   -6.0410    9.6080 hc        1 ON9      0.030200
     54 H17         3.9960   -2.5520    8.4360 h4        1 ON9      0.241000
     55 H18         4.0270   -2.0660    3.2280 ha        1 ON9      0.156500
     56 H19         5.2760   -0.8250    4.8360 h1        1 ON9      0.067700
     57 H20         3.5270    2.2010    3.5500 ha        1 ON9      0.156500
     58 H21         2.3150   -1.3950    4.8930 hc        1 ON9      0.063200
     59 H22         3.4330   -2.2370    6.0400 hc        1 ON9      0.063200
     60 H23         2.9110    0.8240    6.0050 hc        1 ON9      0.062700
     61 H25         2.0920   -1.2850    7.9730 hc        1 ON9      0.064700
     62 H26         1.2750   -3.3800    5.9850 hc        1 ON9      0.074950
     63 H27         1.3170   -3.4390    7.7890 hc        1 ON9      0.074950
     64 H28         0.6500    0.1240    5.7320 hc        1 ON9      0.074950
     65 H29         0.5830    0.4130    7.5160 hc        1 ON9      0.074950
     66 H30        -2.2330    0.4090    6.6750 ha        1 ON9      0.131000
     67 H31         5.9230    1.3100    4.2860 ho        1 ON9      0.404000
     68 H32        -4.1250   -1.2130    6.8180 ha        1 ON9      0.115000
     69 H33        -3.6810   -3.6510    7.0250 ha        1 ON9      0.115000
     70 H34        -1.3330   -4.5130    7.0890 ha        1 ON9      0.131000
     71 H35         3.6650    0.0390    8.1920 h1        1 ON9      0.068200
     72 H36         4.9620    1.0050    7.3260 h1        1 ON9      0.068200
     73 H37         7.1460   -0.1670    6.7270 h4        1 ON9      0.169000
     74 O5          2.7710   -2.2380    0.8050 os        1 ON9     -0.328900
     75 O7          2.2120    2.4280    1.1490 os        1 ON9     -0.328900
     76 C26         8.5450   -2.7340    7.1550 c         1 ON9      0.686700
     77 C23         6.1670   -4.5660    8.2990 c3        1 ON9     -0.005100
@<TRIPOS>BOND
     1    1    5 1   
     2    1   38 1   
     3    1   39 1   
     4    1   40 1   
     5    2   41 1   
     6    2   42 1   
     7    2   43 1   
     8    2   75 1   
     9    3   44 1   
    10    3   45 1   
    11    3   46 1   
    12    3   74 1   
    13    4   15 1   
    14    4   47 1   
    15    4   48 1   
    16    4   49 1   
    17    5    9 1   
    18    5   10 2   
    19    6    7 1   
    20    6   52 1   
    21    6   53 1   
    22    6   77 1   
    23    7   23 1   
    24    7   37 1   
    25    8   12 1   
    26    8   13 2   
    27    8   77 1   
    28    9   11 ar  
    29    9   35 ar  
    30   11   14 ar  
    31   11   74 1   
    32   12   34 2   
    33   12   76 1   
    34   13   36 1   
    35   13   54 1   
    36   14   22 ar  
    37   14   55 1   
    38   15   76 1   
    39   16   20 1   
    40   16   22 1   
    41   16   29 1   
    42   16   56 1   
    43   17   76 2   
    44   18   22 ar  
    45   18   35 ar  
    46   18   57 1   
    47   19   20 1   
    48   19   24 1   
    49   19   58 1   
    50   19   59 1   
    51   20   33 1   
    52   20   60 1   
    53   21   26 1   
    54   21   27 ar  
    55   21   28 ar  
    56   24   25 1   
    57   24   26 1   
    58   24   61 1   
    59   25   27 1   
    60   25   62 1   
    61   25   63 1   
    62   26   64 1   
    63   26   65 1   
    64   27   32 ar  
    65   28   30 ar  
    66   28   66 1   
    67   29   67 1   
    68   30   31 ar  
    69   30   68 1   
    70   31   32 ar  
    71   31   69 1   
    72   32   70 1   
    73   33   36 1   
    74   33   71 1   
    75   33   72 1   
    76   34   36 1   
    77   34   73 1   
    78   35   75 1   
    79   50   77 1   
    80   51   77 1   
@<TRIPOS>SUBSTRUCTURE
     1 ON9         1 TEMP              0 ****  ****    0 ROOT
