@<TRIPOS>MOLECULE
molecule
   26    28     1     0     0
SMALL
bcc


@<TRIPOS>ATOM
      1 CAA          0.0000     0.0000     0.0000 ca         1 ONB      -0.143000
      2 CAB          1.5990     3.5540     5.7780 ca         1 ONB      -0.143000
      3 CAC          1.3160     0.0000     0.0000 ca         1 ONB      -0.104500
      4 CAD          2.7760     3.2450     5.2790 ca         1 ONB      -0.104500
      5 CAE         -0.7330    -0.0060     1.2760 ca         1 ONB      -0.105000
      6 CAF          0.4590     2.6440     5.5840 ca         1 ONB      -0.105000
      7 CAG          2.0490     0.0000     1.2760 ca         1 ONB      -0.192000
      8 CAH          2.9470     1.9950     4.5210 ca         1 ONB      -0.192000
      9 CAI         -0.8370    -0.0290     3.6750 cc         1 ONB      -0.108000
     10 CAJ         -0.5400     0.6290     4.7450 cd         1 ONB      -0.108000
     11 NAK          2.1160     0.0140     3.6090 na         1 ONB      -0.157300
     12 CAL         -0.0770    -0.0090     2.4220 ca         1 ONB      -0.035000
     13 CAM          0.6120     1.5200     4.9080 ca         1 ONB      -0.035000
     14 CAN          1.3920    -0.0010     2.4220 ca         1 ONB      -0.002200
     15 CAO          1.9230     1.1800     4.3420 ca         1 ONB      -0.002200
     16 HAA         -0.5430    -0.0000    -0.9380 ha         1 ONB       0.132000
     17 HAB          1.4700     4.4730     6.3360 ha         1 ONB       0.132000
     18 HAC          1.8590     0.0040    -0.9380 ha         1 ONB       0.131000
     19 HAD          3.6170     3.9130     5.4200 ha         1 ONB       0.131000
     20 HAE         -1.8160    -0.0060     1.2760 ha         1 ONB       0.135000
     21 HAF         -0.5100     2.8990     5.9950 ha         1 ONB       0.135000
     22 HAG          3.1320    -0.0000     1.2750 ha         1 ONB       0.129000
     23 HAH          3.9170     1.7410     4.1110 ha         1 ONB       0.129000
     24 HAI         -1.7240    -0.6510     3.7060 ha         1 ONB       0.127000
     25 HAJ         -1.2000     0.5120     5.5970 ha         1 ONB       0.127000
     26 HNAK         3.0900    -0.0970     3.4080 hn         1 ONB       0.229700
@<TRIPOS>BOND
     1     1     3 ar
     2     1     5 ar
     3     2     4 ar
     4     2     6 ar
     5     3     7 ar
     6     4     8 ar
     7     5    12 ar
     8     6    13 ar
     9     7    14 ar
    10     8    15 ar
    11     9    10 2
    12     9    12 1
    13    10    13 1
    14    11    14 1
    15    11    15 1
    16    12    14 ar
    17    13    15 ar
    18     1    16 1
    19     2    17 1
    20     3    18 1
    21     4    19 1
    22     5    20 1
    23     6    21 1
    24     7    22 1
    25     8    23 1
    26     9    24 1
    27    10    25 1
    28    11    26 1
@<TRIPOS>SUBSTRUCTURE
     1 ONB         1 TEMP              0 ****  ****    0 ROOT
