@<TRIPOS>MOLECULE
ONB
   26    28     1     0     0
SMALL
bcc


@<TRIPOS>ATOM
      1 CAA          0.0000     0.0000     0.0000 ca         1 ONB      -0.115000
      2 CAB          1.5990     3.5540     5.7780 ca         1 ONB      -0.115000
      3 CAC          1.3160     0.0000     0.0000 ca         1 ONB      -0.077000
      4 CAD          2.7760     3.2450     5.2790 ca         1 ONB      -0.077000
      5 CAE         -0.7330    -0.0060     1.2760 ca         1 ONB      -0.080000
      6 CAF          0.4590     2.6440     5.5840 ca         1 ONB      -0.080000
      7 CAG          2.0490     0.0000     1.2760 ca         1 ONB      -0.166000
      8 CAH          2.9470     1.9950     4.5210 ca         1 ONB      -0.166000
      9 CAI         -0.8370    -0.0290     3.6750 cc         1 ONB      -0.083000
     10 CAJ         -0.5400     0.6290     4.7450 cd         1 ONB      -0.083000
     11 NAK          2.1160     0.0140     3.6090 na         1 ONB       0.172700
     12 CAL         -0.0770    -0.0090     2.4220 ca         1 ONB      -0.032000
     13 CAM          0.6120     1.5200     4.9080 ca         1 ONB      -0.032000
     14 CAN          1.3920    -0.0010     2.4220 ca         1 ONB      -0.104200
     15 CAO          1.9230     1.1800     4.3420 ca         1 ONB      -0.104200
     16 HAA         -0.5430    -0.0000    -0.9380 ha         1 ONB       0.104000
     17 HAB          1.4700     4.4730     6.3360 ha         1 ONB       0.104000
     18 HAC          1.8590     0.0040    -0.9380 ha         1 ONB       0.102000
     19 HAD          3.6170     3.9130     5.4200 ha         1 ONB       0.102000
     20 HAE         -1.8160    -0.0060     1.2760 ha         1 ONB       0.107000
     21 HAF         -0.5100     2.8990     5.9950 ha         1 ONB       0.107000
     22 HAG          3.1320    -0.0000     1.2750 ha         1 ONB       0.109000
     23 HAH          3.9170     1.7410     4.1110 ha         1 ONB       0.109000
     24 HAI         -1.7240    -0.6510     3.7060 ha         1 ONB       0.100000
     25 HAJ         -1.2000     0.5120     5.5970 ha         1 ONB       0.100000
     26 HNAK         3.0900    -0.0970     3.4080 hn         1 ONB       0.098700
@<TRIPOS>BOND
     1     1     3 ar  
     2     1     5 ar  
     3     1    16 1   
     4     2     4 ar  
     5     2     6 ar  
     6     2    17 1   
     7     3     7 ar  
     8     3    18 1   
     9     4     8 ar  
    10     4    19 1   
    11     5    12 ar  
    12     5    20 1   
    13     6    13 ar  
    14     6    21 1   
    15     7    14 ar  
    16     7    22 1   
    17     8    15 ar  
    18     8    23 1   
    19     9    10 2   
    20     9    12 1   
    21     9    24 1   
    22    10    13 1   
    23    10    25 1   
    24    11    14 1   
    25    11    15 1   
    26    11    26 1   
    27    12    14 ar  
    28    13    15 ar  
@<TRIPOS>SUBSTRUCTURE
     1 ONB         1 TEMP              0 ****  ****    0 ROOT
