@<TRIPOS>MOLECULE
molecule
   71    73     1     0     0
SMALL
bcc


@<TRIPOS>ATOM
      1 O32          0.0000     0.0000     0.0000 o          1 ONO      -0.617100
      2 C30          1.2160     0.0000     0.0000 c          1 ONO       0.681700
      3 N31          1.8900     0.0000     1.1670 ns         1 ONO      -0.573900
      4 C34          1.1580     0.0000     2.4360 c3         1 ONO       0.012700
      5 C66          0.7990     1.4140     2.8090 c          1 ONO       0.565900
      6 O67          1.1220     2.3290     2.0900 o          1 ONO      -0.534100
      7 C35          2.0360    -0.6100     3.5300 c3         1 ONO      -0.078000
      8 C62          3.3140     0.2170     3.6800 c3         1 ONO      -0.085100
      9 C37          1.2710    -0.6110     4.8560 c3         1 ONO      -0.085100
     10 C36          2.4000    -2.0470     3.1510 c3         1 ONO      -0.085100
     11 C24          1.9550     0.0010    -1.2810 ca         1 ONO      -0.162600
     12 C23          3.3530     0.0010    -1.2790 ca         1 ONO      -0.120000
     13 C22          4.0490     0.0010    -2.4670 ca         1 ONO      -0.146000
     14 C25          1.2560     0.0000    -2.4860 ca         1 ONO      -0.033000
     15 C26          1.9540     0.0060    -3.6900 ca         1 ONO      -0.080600
     16 C27          1.2220     0.0060    -4.9710 c          1 ONO       0.882200
     17 O29         -0.1260     0.0010    -4.9770 o          1 ONO      -0.789800
     18 O28          1.8340     0.0110    -6.0210 o          1 ONO      -0.789800
     19 C21          3.3630     0.0000    -3.6810 cp         1 ONO      -0.014000
     20 C20          4.1130    -0.0000    -4.9550 cp         1 ONO      -0.060300
     21 C19          4.9130    -1.0930    -5.3100 ca         1 ONO      -0.061000
     22 C18          5.5940    -1.0480    -6.5100 ca         1 ONO      -0.226300
     23 C17          5.4680     0.0760    -7.3280 ca         1 ONO       0.632600
     24 O44          6.1380     0.1210    -8.5060 os         1 ONO      -0.409100
     25 C58          5.8170     1.3740    -9.1140 c3         1 ONO       0.123700
     26 N16          4.7120     1.0960    -6.9700 nb         1 ONO      -0.788000
     27 C15          4.0340     1.0960    -5.8300 ca         1 ONO       0.451800
     28 C13          3.1940     2.2620    -5.4740 c          1 ONO       0.603600
     29 O14          2.5750     2.2670    -4.4280 o          1 ONO      -0.550100
     30 N7           3.1150     3.3160    -6.3100 ns         1 ONO      -0.446100
     31 C1           2.4160     4.4630    -5.9230 ca         1 ONO       0.184600
     32 C6           2.4700     4.9010    -4.6060 ca         1 ONO      -0.113000
     33 C5           1.7790     6.0350    -4.2270 ca         1 ONO      -0.088000
     34 C4           1.0330     6.7350    -5.1580 ca         1 ONO      -0.312300
     35 C8           0.2780     7.9710    -4.7410 c3         1 ONO       0.386000
     36 N10         -0.9210     8.1180    -5.5770 nz         1 ONO      -0.842100
     37 N9          -0.1180     7.8510    -3.3320 nz         1 ONO      -0.842100
     38 C3           0.9760     6.3020    -6.4700 ca         1 ONO      -0.088000
     39 C2           1.6700     5.1720    -6.8570 ca         1 ONO      -0.113000
     40 H31          2.8900     0.0220     1.1660 hn         1 ONO       0.321500
     41 H34          0.2530    -0.5860     2.3300 h1         1 ONO       0.105700
     42 H66          0.2060     1.6060     3.6950 h4         1 ONO      -0.003800
     43 H621         3.0540     1.2500     3.8770 hc         1 ONO       0.040700
     44 H622         3.8910     0.1580     2.7650 hc         1 ONO       0.040700
     45 H623         3.9010    -0.1710     4.5030 hc         1 ONO       0.040700
     46 H371         1.2810     0.3860     5.2790 hc         1 ONO       0.040700
     47 H372         0.2470    -0.9190     4.6820 hc         1 ONO       0.040700
     48 H373         1.7430    -1.3010     5.5450 hc         1 ONO       0.040700
     49 H361         1.5180    -2.5570     2.7800 hc         1 ONO       0.040700
     50 H362         3.1610    -2.0360     2.3800 hc         1 ONO       0.040700
     51 H363         2.7770    -2.5670     4.0230 hc         1 ONO       0.040700
     52 H23          3.8910     0.0020    -0.3390 ha         1 ONO       0.113000
     53 H22          5.1320    -0.0010    -2.4580 ha         1 ONO       0.122000
     54 H25          0.1760    -0.0860    -2.4860 ha         1 ONO       0.184000
     55 H19          4.9960    -1.9540    -4.6590 ha         1 ONO       0.158000
     56 H18          6.2220    -1.8770    -6.8140 ha         1 ONO       0.156000
     57 H581         6.3430     1.4620   -10.0570 h1         1 ONO       0.041700
     58 H582         4.7500     1.4280    -9.2890 h1         1 ONO       0.041700
     59 H583         6.1170     2.1820    -8.4570 h1         1 ONO       0.041700
     60 HN7          3.5830     3.2890    -7.1940 hn         1 ONO       0.367500
     61 H6           3.0540     4.3530    -3.8760 ha         1 ONO       0.194000
     62 H5           1.8200     6.3760    -3.2000 ha         1 ONO       0.110000
     63 H8           0.9130     8.8400    -4.8650 hx         1 ONO       0.154700
     64 H101        -0.6520     8.3890    -6.5020 hn         1 ONO       0.471133
     65 H102        -1.5170     8.8190    -5.1840 hn         1 ONO       0.471133
     66 HN91         0.6910     7.9410    -2.7490 hn         1 ONO       0.471133
     67 HN92        -0.7730     8.5730    -3.1070 hn         1 ONO       0.471133
     68 H3           0.3930     6.8540    -7.1970 ha         1 ONO       0.110000
     69 H2           1.6260     4.8340    -7.8850 ha         1 ONO       0.194000
     70 H103        -1.4070     7.2440    -5.6200 hn         1 ONO       0.471133
     71 H93         -0.5120     6.9450    -3.1720 hn         1 ONO       0.471133
@<TRIPOS>BOND
     1     1     2 2
     2     2     3 1
     3     2    11 1
     4     3     4 1
     5     3    40 1
     6     4     5 1
     7     4     7 1
     8     4    41 1
     9     5     6 2
    10     5    42 1
    11     7     8 1
    12     7     9 1
    13     7    10 1
    14     8    43 1
    15     8    44 1
    16     8    45 1
    17     9    46 1
    18     9    47 1
    19     9    48 1
    20    10    49 1
    21    10    50 1
    22    10    51 1
    23    11    12 ar
    24    11    14 ar
    25    12    13 ar
    26    12    52 1
    27    13    19 ar
    28    13    53 1
    29    14    15 ar
    30    14    54 1
    31    15    16 1
    32    15    19 ar
    33    16    17 1
    34    16    18 1
    35    19    20 1
    36    20    21 ar
    37    20    27 ar
    38    21    22 ar
    39    21    55 1
    40    22    23 ar
    41    22    56 1
    42    23    24 1
    43    23    26 ar
    44    24    25 1
    45    25    57 1
    46    25    58 1
    47    25    59 1
    48    26    27 ar
    49    27    28 1
    50    28    29 2
    51    28    30 1
    52    30    31 1
    53    30    60 1
    54    31    32 ar
    55    31    39 ar
    56    32    33 ar
    57    32    61 1
    58    33    34 ar
    59    33    62 1
    60    34    35 1
    61    34    38 ar
    62    35    36 1
    63    35    37 1
    64    35    63 1
    65    36    64 1
    66    36    65 1
    67    37    66 1
    68    37    67 1
    69    38    39 ar
    70    38    68 1
    71    39    69 1
    72    70    36 1
    73    71    37 1
@<TRIPOS>SUBSTRUCTURE
     1 ONO         1 TEMP              0 ****  ****    0 ROOT
