@<TRIPOS>MOLECULE
ONO
   72    74     1     0     0
SMALL
bcc


@<TRIPOS>ATOM
      1 O32         0.1980    0.2760    0.7300 o         1 ONO     -0.414100
      2 C30         1.3380   -0.0560    0.4410 c         1 ONO      0.579700
      3 N31         2.0850   -0.8600    1.4920 n4        1 ONO     -0.672800
      4 C34         1.9600   -0.3080    2.8840 c3        1 ONO     -0.014500
      5 C66         2.9890    0.7940    3.1480 c         1 ONO      0.573900
      6 O67         3.9330    0.9930    2.3890 o         1 ONO     -0.508100
      7 C35         2.0890   -1.4230    3.9620 c3        1 ONO     -0.057000
      8 C62         3.4200   -2.1440    3.8280 c3        1 ONO     -0.114433
      9 C37         2.0010   -0.7620    5.3340 c3        1 ONO     -0.114433
     10 C36         0.9390   -2.4110    3.8210 c3        1 ONO     -0.114433
     11 C24         2.0630    0.1720   -0.8130 ca        1 ONO     -0.216600
     12 C23         3.4100    0.5670   -0.8400 ca        1 ONO     -0.067000
     13 C22         4.0400    0.7710   -2.0610 ca        1 ONO     -0.110000
     14 C25         1.3480    0.0300   -2.0100 ca        1 ONO     -0.006000
     15 C26         1.9880    0.2460   -3.2360 ca        1 ONO     -0.119600
     16 C27         1.1890    0.0940   -4.4690 c         1 ONO      0.662700
     17 O29         0.3220   -0.9530   -4.4310 oh        1 ONO     -0.593100
     18 O28         1.1850    0.7950   -5.4850 o         1 ONO     -0.547000
     19 C21         3.3490    0.5970   -3.2740 cp        1 ONO      0.099000
     20 C20         4.0950    0.7170   -4.5270 cp        1 ONO     -0.222300
     21 C19         4.8470   -0.3960   -4.9690 ca        1 ONO     -0.050000
     22 C18         5.5800   -0.3150   -6.1360 ca        1 ONO     -0.229300
     23 C17         5.5440    0.9150   -6.8620 ca        1 ONO      0.666600
     24 O44         6.2930    0.9210   -8.0070 os        1 ONO     -0.422100
     25 C58         6.3480    2.1250   -8.7790 c3        1 ONO      0.119700
     26 N16         4.8290    1.9970   -6.4650 nb        1 ONO     -0.721000
     27 C15         4.1310    1.8850   -5.3090 ca        1 ONO      0.440800
     28 C13         3.4010    3.1420   -4.8780 c         1 ONO      0.591600
     29 O14         3.7490    3.7750   -3.8730 o         1 ONO     -0.557100
     30 N7          2.3420    3.5070   -5.7060 n         1 ONO     -0.449100
     31 C1          1.6960    4.7400   -5.7430 ca        1 ONO      0.137600
     32 C6          2.0610    5.8350   -4.9210 ca        1 ONO     -0.175000
     33 C5          1.4080    7.0540   -5.0430 ca        1 ONO     -0.067000
     34 C4          0.3760    7.2240   -5.9710 ca        1 ONO     -0.255300
     35 C8         -0.3210    8.5540   -6.0610 c3        1 ONO      0.509000
     36 N10         0.1690    9.2140   -7.4080 n4        1 ONO     -0.892600
     37 N9         -1.7350    8.5240   -6.0450 n3        1 ONO     -0.987800
     38 C3         -0.0090    6.1450   -6.7780 ca        1 ONO     -0.067000
     39 C2          0.6340    4.9230   -6.6730 ca        1 ONO     -0.175000
     40 H31         3.0850   -0.9020    1.2470 hn        1 ONO      0.469800
     41 H34         0.9230    0.1460    2.9730 hx        1 ONO      0.141700
     42 H66         2.7960    1.3820    4.0710 h4        1 ONO      0.079200
     43 H621        4.2620   -1.4140    3.7610 hc        1 ONO      0.061478
     44 H622        3.4390   -2.8080    2.9300 hc        1 ONO      0.061478
     45 H623        3.5870   -2.7880    4.7280 hc        1 ONO      0.061478
     46 H371        1.1270   -0.0700    5.3880 hc        1 ONO      0.061478
     47 H372        1.8710   -1.5500    6.1190 hc        1 ONO      0.061478
     48 H373        2.9370   -0.2000    5.5690 hc        1 ONO      0.061478
     49 H361        1.0520   -3.0620    2.9210 hc        1 ONO      0.061478
     50 H362       -0.0400   -1.8770    3.7690 hc        1 ONO      0.061478
     51 H363        0.9190   -3.0870    4.7130 hc        1 ONO      0.061478
     52 H23         3.9750    0.7520    0.0920 ha        1 ONO      0.171000
     53 H22         5.0980    1.0870   -2.0850 ha        1 ONO      0.184000
     54 H25         0.2820   -0.2610   -1.9960 ha        1 ONO      0.180000
     55 H19         4.8460   -1.3270   -4.3800 ha        1 ONO      0.155000
     56 H18         6.1820   -1.1520   -6.5200 ha        1 ONO      0.186000
     57 H581        5.3330    2.3910   -9.1590 h1        1 ONO      0.063033
     58 H582        7.0320    1.8430   -9.6210 h1        1 ONO      0.063033
     59 H583        6.7790    2.9580   -8.1740 h1        1 ONO      0.063033
     60 HN7         2.0260    2.8150   -6.3600 hn        1 ONO      0.357500
     61 H6          2.8710    5.7320   -4.1770 ha        1 ONO      0.176000
     62 H5          1.7140    7.8870   -4.3890 ha        1 ONO      0.142500
     63 H8          0.0830    9.2730   -5.2770 hx        1 ONO      0.101700
     64 H101       -0.0810    8.6180   -8.1980 hn        1 ONO      0.447467
     65 H102       -0.2580   10.1310   -7.5390 hn        1 ONO      0.447467
     66 HN91       -0.1680   -1.0080   -5.2720 ho        1 ONO      0.469000
     67 HN92       -2.1630    7.6320   -6.1490 hn        1 ONO      0.437300
     68 H3         -0.8290    6.2540   -7.5060 ha        1 ONO      0.142500
     69 H2          0.3130    4.0900   -7.3200 ha        1 ONO      0.176000
     70 H312        1.7070   -1.8170    1.4860 hn        1 ONO      0.469800
     71 H103        1.1830    9.3040   -7.3670 hn        1 ONO      0.447467
     72 H93        -2.1810    9.1390   -5.4050 hn        1 ONO      0.437300
@<TRIPOS>BOND
     1    1    2 2   
     2    2    3 1   
     3    2   11 1   
     4    3    4 1   
     5    3   40 1   
     6    3   70 1   
     7    4    5 1   
     8    4    7 1   
     9    4   41 1   
    10    5    6 2   
    11    5   42 1   
    12    7    8 1   
    13    7    9 1   
    14    7   10 1   
    15    8   43 1   
    16    8   44 1   
    17    8   45 1   
    18    9   46 1   
    19    9   47 1   
    20    9   48 1   
    21   10   49 1   
    22   10   50 1   
    23   10   51 1   
    24   11   12 ar  
    25   11   14 ar  
    26   12   13 ar  
    27   12   52 1   
    28   13   19 ar  
    29   13   53 1   
    30   14   15 ar  
    31   14   54 1   
    32   15   16 1   
    33   15   19 ar  
    34   16   17 1   
    35   16   18 2   
    36   17   66 1   
    37   19   20 1   
    38   20   21 ar  
    39   20   27 ar  
    40   21   22 ar  
    41   21   55 1   
    42   22   23 ar  
    43   22   56 1   
    44   23   24 1   
    45   23   26 ar  
    46   24   25 1   
    47   25   57 1   
    48   25   58 1   
    49   25   59 1   
    50   26   27 ar  
    51   27   28 1   
    52   28   29 2   
    53   28   30 1   
    54   30   31 1   
    55   30   60 1   
    56   31   32 ar  
    57   31   39 ar  
    58   32   33 ar  
    59   32   61 1   
    60   33   34 ar  
    61   33   62 1   
    62   34   35 1   
    63   34   38 ar  
    64   35   36 1   
    65   35   37 1   
    66   35   63 1   
    67   36   64 1   
    68   36   65 1   
    69   36   71 1   
    70   37   67 1   
    71   37   72 1   
    72   38   39 ar  
    73   38   68 1   
    74   39   69 1   
@<TRIPOS>SUBSTRUCTURE
     1 ONO         1 TEMP              0 ****  ****    0 ROOT
