@<TRIPOS>MOLECULE
ONR
   19    20     1     0     0
SMALL
bcc


@<TRIPOS>ATOM
      1 C1          0.0020   -0.0830   -0.0370 ca        1 ONR     -0.066000
      2 C2          1.3570   -0.3820    0.0140 ca        1 ONR     -0.214000
      3 C3          2.0500   -0.2970    1.2330 ca        1 ONR      0.163100
      4 C4          1.3810    0.0900    2.4170 ca        1 ONR     -0.161500
      5 C5          0.0120    0.3890    2.3460 ca        1 ONR     -0.067000
      6 C6         -0.6670    0.3020    1.1310 ca        1 ONR     -0.025600
      7 CL7        -2.3260    0.6680    1.0690 cl        1 ONR     -0.085400
      8 C8          2.0580    0.1880    3.6810 cc        1 ONR      0.323200
      9 C9          1.6610    0.5380    4.9640 cd        1 ONR     -0.358600
     10 C10         2.8750    0.4160    5.7590 cd        1 ONR      0.301200
     11 N11         3.8840    0.0220    4.9640 nc        1 ONR     -0.359300
     12 O12         3.4420   -0.1230    3.7330 os        1 ONR     -0.087100
     13 O13         3.3860   -0.5820    1.3350 oh        1 ONR     -0.464100
     14 H1         -0.5420   -0.1490   -0.9930 ha        1 ONR      0.153000
     15 H2          1.8910   -0.6850   -0.8980 ha        1 ONR      0.145000
     16 H5         -0.5210    0.6920    3.2610 ha        1 ONR      0.155000
     17 H9          0.6830    0.8370    5.3210 ha        1 ONR      0.173000
     18 H10         2.9870    0.6040    6.8270 h4        1 ONR      0.051100
     19 HO13        3.7110   -0.8310    0.4560 ho        1 ONR      0.424000
@<TRIPOS>BOND
     1    1    2 ar  
     2    1    6 ar  
     3    1   14 1   
     4    2    3 ar  
     5    2   15 1   
     6    3    4 ar  
     7    3   13 1   
     8    4    5 ar  
     9    4    8 1   
    10    5    6 ar  
    11    5   16 1   
    12    6    7 1   
    13    8    9 2   
    14    8   12 1   
    15    9   10 1   
    16    9   17 1   
    17   10   11 2   
    18   10   18 1   
    19   11   12 1   
    20   13   19 1   
@<TRIPOS>SUBSTRUCTURE
     1 ONR         1 TEMP              0 ****  ****    0 ROOT
