@<TRIPOS>MOLECULE
molecule
  122   121     1     0     0
SMALL
bcc


@<TRIPOS>ATOM
      1 CBD          0.0000     0.0000     0.0000 c3         1 ONX      -0.082400
      2 CAQ         19.8490     5.5590    -0.4680 c3         1 ONX      -0.082400
      3 CBC          1.5300     0.0000     0.0000 c3         1 ONX      -0.081400
      4 CAP         18.3240     5.6110    -0.3530 c3         1 ONX      -0.082400
      5 CBB          2.0410     0.0000     1.4420 c3         1 ONX      -0.081400
      6 CAO         17.8640     4.6680     0.7620 c3         1 ONX      -0.082400
      7 CBA          3.5700     0.0000     1.4420 c3         1 ONX      -0.081400
      8 CAN         16.3390     4.7200     0.8770 c3         1 ONX      -0.080400
      9 CAZ          4.0800    -0.0000     2.8840 c3         1 ONX      -0.082400
     10 CAM         15.8790     3.7780     1.9920 c3         1 ONX      -0.085400
     11 CAY          5.6110     0.0000     2.8840 c3         1 ONX      -0.078400
     12 CAL         14.3540     3.8300     2.1070 c3         1 ONX      -0.066400
     13 CAH          6.1210    -0.0000     4.3260 c3         1 ONX      -0.049200
     14 CAF          8.2830     0.9300     4.9760 c2         1 ONX      -0.203200
     15 OAJ         11.7530     3.6580     2.5960 o          1 ONX      -0.611100
     16 CAB         10.3000     2.2360     4.3650 c3         1 ONX       0.122700
     17 CAA          9.8960     3.4090     5.2610 c3         1 ONX      -0.103100
     18 CAG          7.6280    -0.0000     4.3260 c2         1 ONX      -0.157200
     19 CBE         -0.5110    -0.0010    -1.4430 c3         1 ONX      -0.082400
     20 CAK         13.8940     2.8880     3.2200 c3         1 ONX      -0.158400
     21 CAR         20.3090     6.5010    -1.5820 c3         1 ONX      -0.082400
     22 NAC         11.7610     2.1860     4.2560 ns         1 ONX      -0.584900
     23 CAD          9.7900     0.9290     4.9760 c3         1 ONX       0.168300
     24 OAI         10.2670     0.8110     6.3180 oh         1 ONX      -0.603800
     25 H1          -0.3610    -0.8840     0.5110 hc         1 ONX       0.041200
     26 H2          -0.3610     0.8850     0.5100 hc         1 ONX       0.041200
     27 H3          20.2920     5.8670     0.4710 hc         1 ONX       0.040700
     28 H4          20.1590     4.5470    -0.6990 hc         1 ONX       0.040700
     29 H5           1.8910     0.8840    -0.5110 hc         1 ONX       0.041200
     30 H6           1.8910    -0.8840    -0.5110 hc         1 ONX       0.041200
     31 H7          17.8800     5.3020    -1.2920 hc         1 ONX       0.041700
     32 H8          18.0130     6.6220    -0.1210 hc         1 ONX       0.041700
     33 H9           1.6800    -0.8840     1.9530 hc         1 ONX       0.041200
     34 H10          1.6800     0.8840     1.9530 hc         1 ONX       0.041200
     35 H11         18.3080     4.9770     1.7010 hc         1 ONX       0.040200
     36 H12         18.1750     3.6570     0.5310 hc         1 ONX       0.040200
     37 H13          3.9310    -0.8840     0.9310 hc         1 ONX       0.041700
     38 H14          3.9310     0.8850     0.9310 hc         1 ONX       0.041700
     39 H15         16.0280     5.7320     1.1080 hc         1 ONX       0.044200
     40 H16         15.8950     4.4120    -0.0620 hc         1 ONX       0.044200
     41 H17          3.7190    -0.8850     3.3940 hc         1 ONX       0.041700
     42 H18          3.7190     0.8840     3.3950 hc         1 ONX       0.041700
     43 H19         16.3230     4.0860     2.9310 hc         1 ONX       0.038200
     44 H20         16.1900     2.7670     1.7600 hc         1 ONX       0.038200
     45 H21          5.9720     0.8850     2.3730 hc         1 ONX       0.044700
     46 H22          5.9720    -0.8840     2.3730 hc         1 ONX       0.044700
     47 H23         14.0440     4.8420     2.3380 hc         1 ONX       0.058700
     48 H24         13.9110     3.5220     1.1680 hc         1 ONX       0.058700
     49 H25          5.7600    -0.8850     4.8360 hc         1 ONX       0.049700
     50 H26          5.7590     0.8840     4.8370 hc         1 ONX       0.049700
     51 H27          7.7420     1.6990     5.5140 ha         1 ONX       0.141000
     52 H29          9.8680     2.3680     3.3810 h1         1 ONX       0.085700
     53 H30          9.7460     3.0550     6.2740 hc         1 ONX       0.047033
     54 H31         10.6800     4.1570     5.2530 hc         1 ONX       0.047033
     55 H32          8.9760     3.8460     4.8910 hc         1 ONX       0.047033
     56 H33          8.1700    -0.7690     3.7890 ha         1 ONX       0.121000
     57 H35         -0.1490     0.8830    -1.9550 hc         1 ONX       0.041200
     58 H36         -0.1500    -0.8860    -1.9530 hc         1 ONX       0.041200
     59 H38         14.3380     3.1960     4.1600 hc         1 ONX       0.057700
     60 H39         14.2040     1.8770     2.9890 hc         1 ONX       0.057700
     61 H40         19.8650     6.1930    -2.5210 hc         1 ONX       0.041200
     62 H41         19.9980     7.5120    -1.3510 hc         1 ONX       0.041200
     63 H43         12.2850     1.5640     4.8380 hn         1 ONX       0.316500
     64 H44         10.1510     0.0920     4.3900 h1         1 ONX       0.035700
     65 H45         10.3920    -0.0990     6.5290 ho         1 ONX       0.403000
     66 C1          -2.0410     0.0000    -1.4420 c3         1 ONX      -0.081400
     67 C2          -2.5500    -0.0000    -2.8850 c3         1 ONX      -0.082400
     68 C3          -4.0810     0.0000    -2.8850 c3         1 ONX      -0.082400
     69 C4          -4.5910    -0.0000    -4.3270 c3         1 ONX      -0.082400
     70 C5          -6.1210    -0.0000    -4.3270 c3         1 ONX      -0.081400
     71 C6          21.8330     6.4480    -1.6970 c3         1 ONX      -0.081400
     72 C7          22.2930     7.3900    -2.8110 c3         1 ONX      -0.082400
     73 C8          23.8180     7.3380    -2.9260 c3         1 ONX      -0.081400
     74 C9          24.2770     8.2800    -4.0410 c3         1 ONX      -0.082400
     75 C10         25.8020     8.2290    -4.1560 c3         1 ONX      -0.082400
     76 C11         26.2620     9.1710    -5.2700 c3         1 ONX      -0.081400
     77 C12         27.7870     9.1190    -5.3850 c3         1 ONX      -0.082400
     78 C13         28.2470    10.0610    -6.5000 c3         1 ONX      -0.082400
     79 C14         29.7710    10.0090    -6.6150 c3         1 ONX      -0.081400
     80 C15         30.2300    10.9510    -7.7290 c3         1 ONX      -0.084400
     81 C16         31.7560    10.9000    -7.8440 c3         1 ONX      -0.092100
     82 H37         -2.4020    -0.8840    -0.9310 hc         1 ONX       0.040700
     83 H42         -2.4010     0.8850    -0.9320 hc         1 ONX       0.040700
     84 H46         -2.1900    -0.8850    -3.3950 hc         1 ONX       0.041200
     85 H47         -2.1890     0.8840    -3.3960 hc         1 ONX       0.041200
     86 H48         -4.4420     0.8850    -2.3750 hc         1 ONX       0.040700
     87 H49         -4.4430    -0.8840    -2.3740 hc         1 ONX       0.040700
     88 H50         -4.2300    -0.8850    -4.8370 hc         1 ONX       0.040700
     89 H51         -4.2300     0.8840    -4.8380 hc         1 ONX       0.040700
     90 H52         -6.4820    -0.8850    -3.8160 hc         1 ONX       0.040700
     91 H53         -6.4820     0.8840    -3.8160 hc         1 ONX       0.040700
     92 H55         22.1430     5.4370    -1.9290 hc         1 ONX       0.040700
     93 H56         22.2760     6.7560    -0.7580 hc         1 ONX       0.040700
     94 H57         21.8490     7.0830    -3.7500 hc         1 ONX       0.040700
     95 H58         21.9820     8.4020    -2.5790 hc         1 ONX       0.040700
     96 H59         24.1280     6.3270    -3.1570 hc         1 ONX       0.040700
     97 H60         24.2610     7.6470    -1.9870 hc         1 ONX       0.040700
     98 H61         23.8340     7.9720    -4.9800 hc         1 ONX       0.040700
     99 H62         23.9670     9.2920    -3.8090 hc         1 ONX       0.040700
    100 H63         26.1130     7.2170    -4.3870 hc         1 ONX       0.040700
    101 H64         26.2460     8.5370    -3.2170 hc         1 ONX       0.040700
    102 H65         25.9520    10.1820    -5.0390 hc         1 ONX       0.040700
    103 H66         25.8180     8.8620    -6.2090 hc         1 ONX       0.040700
    104 H67         28.0980     8.1070    -5.6170 hc         1 ONX       0.040700
    105 H68         28.2310     9.4270    -4.4460 hc         1 ONX       0.040700
    106 H69         27.9360    11.0720    -6.2690 hc         1 ONX       0.040700
    107 H70         27.8040     9.7520    -7.4390 hc         1 ONX       0.040700
    108 H71         30.2140    10.3180    -5.6750 hc         1 ONX       0.040700
    109 H72         30.0820     8.9980    -6.8460 hc         1 ONX       0.040700
    110 H73         29.7870    10.6430    -8.6680 hc         1 ONX       0.039700
    111 H74         29.9200    11.9630    -7.4980 hc         1 ONX       0.039700
    112 H75         32.1990    11.2080    -6.9050 hc         1 ONX       0.032367
    113 H76         32.0810    11.5660    -8.6340 hc         1 ONX       0.032367
    114 H77         32.0660     9.8880    -8.0750 hc         1 ONX       0.032367
    115 C17         -6.6310    -0.0000    -5.7690 c3         1 ONX      -0.084400
    116 C18         -8.1610    -0.0000    -5.7690 c3         1 ONX      -0.092100
    117 H28         -6.2700    -0.8850    -6.2800 hc         1 ONX       0.039700
    118 H34         -6.2700     0.8840    -6.2800 hc         1 ONX       0.039700
    119 H54         -8.5220    -0.0300    -6.7900 hc         1 ONX       0.032367
    120 H78         -8.5220    -0.8700    -5.2330 hc         1 ONX       0.032367
    121 H79         -8.5220     0.8990    -5.2850 hc         1 ONX       0.032367
    122 CAE         12.3920     2.9400     3.3340 c          1 ONX       0.656100
@<TRIPOS>BOND
     1     3     1 1
     2     3     5 1
     3    19     1 1
     4     7     5 1
     5     7     9 1
     6     9    11 1
     7    11    13 1
     8    13    18 1
     9    18    14 2
    10    14    23 1
    11     4     2 1
    12     4     6 1
    13     2    21 1
    14    23    24 1
    15    23    16 1
    16     8     6 1
    17     8    10 1
    18    12    10 1
    19    12    20 1
    20    22    16 1
    21    22   122 1
    22    16    17 1
    23    20   122 1
    24   122    15 2
    25     1    25 1
    26     1    26 1
    27     2    27 1
    28     2    28 1
    29     3    29 1
    30     3    30 1
    31     4    31 1
    32     4    32 1
    33     5    33 1
    34     5    34 1
    35     6    35 1
    36     6    36 1
    37     7    37 1
    38     7    38 1
    39     8    39 1
    40     8    40 1
    41     9    41 1
    42     9    42 1
    43    10    43 1
    44    10    44 1
    45    11    45 1
    46    11    46 1
    47    12    47 1
    48    12    48 1
    49    13    49 1
    50    13    50 1
    51    14    51 1
    52    16    52 1
    53    17    53 1
    54    17    54 1
    55    17    55 1
    56    18    56 1
    57    19    57 1
    58    19    58 1
    59    20    59 1
    60    20    60 1
    61    21    61 1
    62    21    62 1
    63    22    63 1
    64    23    64 1
    65    24    65 1
    66    19    66 1
    67    66    67 1
    68    67    68 1
    69    68    69 1
    70    69    70 1
    71    21    71 1
    72    71    72 1
    73    72    73 1
    74    73    74 1
    75    74    75 1
    76    75    76 1
    77    76    77 1
    78    77    78 1
    79    78    79 1
    80    79    80 1
    81    80    81 1
    82    66    82 1
    83    66    83 1
    84    67    84 1
    85    67    85 1
    86    68    86 1
    87    68    87 1
    88    69    88 1
    89    69    89 1
    90    70    90 1
    91    70    91 1
    92    71    92 1
    93    71    93 1
    94    72    94 1
    95    72    95 1
    96    73    96 1
    97    73    97 1
    98    74    98 1
    99    74    99 1
   100    75   100 1
   101    75   101 1
   102    76   102 1
   103    76   103 1
   104    77   104 1
   105    77   105 1
   106    78   106 1
   107    78   107 1
   108    79   108 1
   109    79   109 1
   110    80   110 1
   111    80   111 1
   112    81   112 1
   113    81   113 1
   114    81   114 1
   115    70   115 1
   116   115   116 1
   117   115   117 1
   118   115   118 1
   119   116   119 1
   120   116   120 1
   121   116   121 1
@<TRIPOS>SUBSTRUCTURE
     1 ONX         1 TEMP              0 ****  ****    0 ROOT
