@<TRIPOS>MOLECULE
ONZ
   24    25     1     0     0
SMALL
bcc


@<TRIPOS>ATOM
      1 C10          0.0000     0.0000     0.0000 ca         1 ONZ      -0.120000
      2 C9           1.3780     0.0000     0.0000 ca         1 ONZ      -0.082000
      3 C11         -0.7000     0.0070     1.1960 ca         1 ONZ      -0.088000
      4 C8           2.0770     0.0000     1.2100 ca         1 ONZ      -0.118600
      5 C12         -0.0210     0.0070     2.4030 ca         1 ONZ       0.024100
      6 C16          1.3710     0.0010     2.4190 ca         1 ONZ       0.120100
      7 C6           3.5530     0.0000     1.2140 c          1 ONZ       0.556700
      8 C2           6.2000    -0.0020    -1.3670 c          1 ONZ       0.972600
      9 C14          0.6520    -0.4010     4.4920 c3         1 ONZ       0.417200
     10 C4           5.6950    -0.0020     0.0530 c3         1 ONZ      -0.073000
     11 N5           4.2300    -0.0010     0.0490 ns         1 ONZ      -0.143900
     12 O3           5.4180    -0.0030    -2.2870 o          1 ONZ      -0.892800
     13 O7           4.1580    -0.0010     2.2690 o          1 ONZ      -0.680100
     14 O1           7.5210    -0.0040    -1.6090 o          1 ONZ      -0.892800
     15 O13         -0.4710     0.0130     3.6930 os         1 ONZ      -0.325900
     16 O15          1.7940     0.0020     3.7130 os         1 ONZ      -0.268900
     17 H1          -0.5390    -0.0000    -0.9400 ha         1 ONZ       0.104000
     18 H2           1.9190    -0.0050    -0.9380 ha         1 ONZ       0.129000
     19 H3          -1.7830     0.0070     1.1860 ha         1 ONZ       0.101000
     20 H4           0.6460    -1.4760     4.6270 h2         1 ONZ       0.006200
     21 H5           0.6460     0.1100     5.4470 h2         1 ONZ       0.006200
     22 H6           6.0550     0.8820     0.5640 h1         1 ONZ       0.025700
     23 H7           6.0540    -0.8870     0.5650 h1         1 ONZ       0.025700
     24 H8           3.7320     0.0020    -0.8190 hn         1 ONZ       0.197500
@<TRIPOS>BOND
     1     1     2 ar  
     2     1     3 ar  
     3     1    17 1   
     4     2     4 ar  
     5     2    18 1   
     6     3     5 ar  
     7     3    19 1   
     8     4     6 ar  
     9     4     7 1   
    10     5     6 ar  
    11     5    15 1   
    12     6    16 1   
    13     7    11 1   
    14     7    13 2   
    15     8    10 1   
    16     8    12 1   
    17     8    14 1   
    18     9    15 1   
    19     9    16 1   
    20     9    20 1   
    21     9    21 1   
    22    10    11 1   
    23    10    22 1   
    24    10    23 1   
    25    11    24 1   
@<TRIPOS>SUBSTRUCTURE
     1 ONZ         1 TEMP              0 ****  ****    0 ROOT
