@<TRIPOS>MOLECULE
molecule
   24    23     1     0     0
SMALL
bcc


@<TRIPOS>ATOM
      1 C1           0.0000     0.0000     0.0000 c          1 OOA       0.888600
      2 C2           1.5080     0.0000     0.0000 c3         1 OOA      -0.283400
      3 C3           2.0100     0.0000     1.4210 c          1 OOA       0.546100
      4 C4           3.4900    -0.0000     1.6960 c3         1 OOA      -0.196400
      5 O1           1.2250     0.0000     2.3380 o          1 OOA      -0.475100
      6 C5           3.7290     0.0000     3.2060 c3         1 OOA      -0.071400
      7 C6           5.2330    -0.0000     3.4870 c3         1 OOA      -0.084400
      8 C7           5.4710     0.0000     4.9970 c3         1 OOA      -0.083400
      9 C8           6.9750    -0.0000     5.2780 c3         1 OOA      -0.092100
     10 O3          -0.6030     0.0000     1.0450 o          1 OOA      -0.834800
     11 O31         -0.6700     0.0000    -1.1630 o          1 OOA      -0.834800
     12 H2C1         1.8690     0.8850    -0.5110 hc         1 OOA       0.048700
     13 H2C2         1.8690    -0.8850    -0.5110 hc         1 OOA       0.048700
     14 H4C1         3.9390     0.8840     1.2600 hc         1 OOA       0.046700
     15 H4C2         3.9390    -0.8840     1.2600 hc         1 OOA       0.046700
     16 H5C1         3.2800    -0.8840     3.6420 hc         1 OOA       0.052700
     17 H5C2         3.2800     0.8840     3.6420 hc         1 OOA       0.052700
     18 H6C1         5.6810    -0.8840     3.0510 hc         1 OOA       0.033700
     19 H6C2         5.6810     0.8840     3.0510 hc         1 OOA       0.033700
     20 H7C1         5.0220    -0.8840     5.4330 hc         1 OOA       0.040700
     21 H7C2         5.0220     0.8840     5.4330 hc         1 OOA       0.040700
     22 H8C1         7.4230     0.8850     4.8420 hc         1 OOA       0.026700
     23 H8C2         7.4230    -0.8850     4.8420 hc         1 OOA       0.026700
     24 H8C3         7.1420    -0.0000     6.3480 hc         1 OOA       0.026700
@<TRIPOS>BOND
     1     1     2 1
     2     1    10 1
     3     1    11 1
     4     2     3 1
     5     2    12 1
     6     2    13 1
     7     3     4 1
     8     3     5 2
     9     4     6 1
    10     4    14 1
    11     4    15 1
    12     6     7 1
    13     6    16 1
    14     6    17 1
    15     7     8 1
    16     7    18 1
    17     7    19 1
    18     8     9 1
    19     8    20 1
    20     8    21 1
    21     9    22 1
    22     9    23 1
    23     9    24 1
@<TRIPOS>SUBSTRUCTURE
     1 OOA         1 TEMP              0 ****  ****    0 ROOT
