@<TRIPOS>MOLECULE
OOA
   24    23     1     0     0
SMALL
bcc


@<TRIPOS>ATOM
      1 C1          0.9610    1.1770    0.0270 c         1 OOA      0.924600
      2 C2          1.0090   -0.3140    0.4550 c3        1 OOA     -0.312400
      3 C3          1.6130   -0.5240    1.8010 c         1 OOA      0.600100
      4 C4          3.0810   -0.2170    1.9000 c3        1 OOA     -0.204400
      5 O1          0.9600   -0.9320    2.7750 o         1 OOA     -0.608100
      6 C5          3.6250   -0.3610    3.3020 c3        1 OOA     -0.067400
      7 C6          5.1000   -0.0260    3.3540 c3        1 OOA     -0.078400
      8 C7          5.6470   -0.1550    4.7600 c3        1 OOA     -0.080400
      9 C8          7.1160    0.1750    4.8170 c3        1 OOA     -0.090100
     10 O3         -0.1450    1.6150   -0.3880 o         1 OOA     -0.832300
     11 O31         2.0280    1.8530    0.0700 o         1 OOA     -0.832300
     12 H2C1       -0.0330   -0.7200    0.4340 hc        1 OOA      0.051700
     13 H2C2        1.6250   -0.8480   -0.3110 hc        1 OOA      0.051700
     14 H4C1        3.2210    0.8380    1.5180 hc        1 OOA      0.088700
     15 H4C2        3.6330   -0.8960    1.1990 hc        1 OOA      0.088700
     16 H5C1        3.0550    0.3160    3.9900 hc        1 OOA      0.040700
     17 H5C2        3.4580   -1.4090    3.6670 hc        1 OOA      0.040700
     18 H6C1        5.6670   -0.7080    2.6670 hc        1 OOA      0.037200
     19 H6C2        5.2590    1.0210    2.9820 hc        1 OOA      0.037200
     20 H7C1        5.4810   -1.2000    5.1310 hc        1 OOA      0.034700
     21 H7C2        5.0800    0.5310    5.4430 hc        1 OOA      0.034700
     22 H8C1        7.7010   -0.5140    4.1620 hc        1 OOA      0.024700
     23 H8C2        7.4990    0.0770    5.8620 hc        1 OOA      0.024700
     24 H8C3        7.2980    1.2220    4.4720 hc        1 OOA      0.024700
@<TRIPOS>BOND
     1    1    2 1   
     2    1   10 1   
     3    1   11 1   
     4    2    3 1   
     5    2   12 1   
     6    2   13 1   
     7    3    4 1   
     8    3    5 2   
     9    4    6 1   
    10    4   14 1   
    11    4   15 1   
    12    6    7 1   
    13    6   16 1   
    14    6   17 1   
    15    7    8 1   
    16    7   18 1   
    17    7   19 1   
    18    8    9 1   
    19    8   20 1   
    20    8   21 1   
    21    9   22 1   
    22    9   23 1   
    23    9   24 1   
@<TRIPOS>SUBSTRUCTURE
     1 OOA         1 TEMP              0 ****  ****    0 ROOT
