@<TRIPOS>MOLECULE
molecule
   69    70     1     0     0
SMALL
bcc


@<TRIPOS>ATOM
      1 C2           0.0000     0.0000     0.0000 c3         1 OOC       0.119100
      2 C4           0.0770     1.1880     2.1920 c3         1 OOC       0.102100
      3 C5           1.6050     1.1420     2.1080 c3         1 OOC       0.162100
      4 C6           2.1920     1.0480     3.5180 c3         1 OOC       0.148400
      5 O2          -0.4780     0.0580    -1.3460 oh         1 OOC      -0.582800
      6 O4          -0.3270     2.3600     2.9030 oh         1 OOC      -0.590800
      7 C1           1.5300     0.0000     0.0000 c3         1 OOC       0.346900
      8 C3          -0.5040     1.2210     0.7760 c3         1 OOC       0.107100
      9 O1           2.0080    -1.1660    -0.6730 os         1 OOC      -0.392600
     10 O3          -0.0810     2.4140     0.1140 oh         1 OOC      -0.580800
     11 O5           2.0060     0.0000     1.3480 os         1 OOC      -0.441600
     12 O6           3.6170     1.1230     3.4470 oh         1 OOC      -0.599800
     13 C1'          5.8390    -2.7620    -1.1390 c3         1 OOC       0.232200
     14 C2'          5.5680    -2.0130     0.1680 c3         1 OOC       0.109100
     15 C3'          4.0550    -1.9050     0.3820 c3         1 OOC       0.116100
     16 C4'          3.4270    -1.2080    -0.8290 c3         1 OOC       0.128100
     17 C5'          3.7810    -1.9880    -2.0970 c3         1 OOC       0.149100
     18 C6'          3.2080    -1.2650    -3.3180 c3         1 OOC       0.147400
     19 O3'          3.4980    -3.2130     0.5220 oh         1 OOC      -0.596800
     20 O5'          5.2010    -2.0770    -2.2200 os         1 OOC      -0.387600
     21 O6'          3.4370    -2.0510    -4.4880 oh         1 OOC      -0.606800
     22 O2'          6.1350    -0.7030     0.0940 oh         1 OOC      -0.580800
     23 CB           9.2240    -4.0300    -3.3060 c3         1 OOC      -0.069400
     24 CC           9.3310    -4.9060    -4.5560 c3         1 OOC      -0.079400
     25 CD          10.8020    -5.0660    -4.9440 c3         1 OOC      -0.081400
     26 CF          10.9080    -5.9420    -6.1940 c3         1 OOC      -0.082400
     27 CG          12.3800    -6.1000    -6.5820 c3         1 OOC      -0.081400
     28 CH          12.4860    -6.9760    -7.8310 c3         1 OOC      -0.084400
     29 CI          13.9580    -7.1360    -8.2190 c3         1 OOC      -0.092100
     30 H2          -0.3600    -0.9030     0.4770 h1         1 OOC       0.055700
     31 HA          -1.2260    -0.5080    -1.4380 ho         1 OOC       0.404000
     32 H1           1.8890     0.8870    -0.5070 h2         1 OOC       0.065700
     33 H3          -1.5860     1.1930     0.8290 h1         1 OOC       0.039700
     34 H4          -0.2810     0.3050     2.7080 h1         1 OOC       0.044700
     35 H5           1.9650     2.0410     1.6220 h1         1 OOC       0.084700
     36 HB          -1.0920     2.1660     3.4190 ho         1 OOC       0.403000
     37 H61C         1.9020     0.1060     3.9680 h1         1 OOC       0.035200
     38 H62C         1.8170     1.8660     4.1210 h1         1 OOC       0.035200
     39 H6           3.9630     1.3420     4.2960 ho         1 OOC       0.402000
     40 HC          -0.8370     2.9260    -0.1250 ho         1 OOC       0.411000
     41 H4'          3.8170    -0.2000    -0.9060 h1         1 OOC       0.080700
     42 H1'          5.4400    -3.7670    -1.0660 h2         1 OOC       0.069700
     43 H2'          6.0110    -2.5570     0.9940 h1         1 OOC       0.047700
     44 H3'          3.8580    -1.3250     1.2750 h1         1 OOC       0.079700
     45 HD           6.8690    -0.6440     0.6820 ho         1 OOC       0.408000
     46 HE           3.4500    -3.4390     1.4370 ho         1 OOC       0.403000
     47 H5'          3.3620    -2.9850    -2.0340 h1         1 OOC       0.070700
     48 H6'1         2.1430    -1.1180    -3.1840 h1         1 OOC       0.039700
     49 H6'2         3.6940    -0.3030    -3.4290 h1         1 OOC       0.039700
     50 H6'          2.9900    -1.6620    -5.2210 ho         1 OOC       0.400000
     51 HA1C         7.3260    -4.8460    -2.7130 h1         1 OOC       0.067200
     52 HA2C         7.2120    -3.4050    -3.7330 h1         1 OOC       0.067200
     53 HB1C         9.7650    -4.4960    -2.4910 hc         1 OOC       0.052200
     54 HB2C         9.6500    -3.0550    -3.5120 hc         1 OOC       0.052200
     55 HC1C         8.7910    -4.4400    -5.3720 hc         1 OOC       0.043700
     56 HC2C         8.9040    -5.8810    -4.3510 hc         1 OOC       0.043700
     57 HD1C        11.2290    -4.0910    -5.1490 hc         1 OOC       0.041700
     58 HD2C        11.3420    -5.5320    -4.1290 hc         1 OOC       0.041700
     59 HF1C        10.3680    -5.4760    -7.0090 hc         1 OOC       0.041700
     60 HF2C        10.4820    -6.9160    -5.9880 hc         1 OOC       0.041700
     61 HG1C        12.9210    -6.5660    -5.7670 hc         1 OOC       0.041200
     62 HG2C        12.8060    -5.1260    -6.7870 hc         1 OOC       0.041200
     63 HH1C        11.9460    -6.5100    -8.6460 hc         1 OOC       0.040200
     64 HH2C        12.0590    -7.9510    -7.6260 hc         1 OOC       0.040200
     65 HI1C        14.4980    -7.6010    -7.4040 hc         1 OOC       0.032367
     66 HI2C        14.0330    -7.7570    -9.1030 hc         1 OOC       0.032367
     67 HI3C        14.3840    -6.1610    -8.4260 hc         1 OOC       0.032367
     68 S1           7.6260    -2.8330    -1.4360 ss         1 OOC      -0.327200
     69 CA           7.7530    -3.8710    -2.9180 c3         1 OOC       0.019700
@<TRIPOS>BOND
     1     1     5 1
     2     1     7 1
     3     1     8 1
     4     2     3 1
     5     2     6 1
     6     2     8 1
     7     3     4 1
     8     3    11 1
     9     4    12 1
    10     7     9 1
    11     7    11 1
    12     8    10 1
    13     9    16 1
    14    13    14 1
    15    13    68 1
    16    13    20 1
    17    14    15 1
    18    14    22 1
    19    15    16 1
    20    15    19 1
    21    16    17 1
    22    17    18 1
    23    17    20 1
    24    18    21 1
    25    68    69 1
    26    69    23 1
    27    23    24 1
    28    24    25 1
    29    25    26 1
    30    26    27 1
    31    27    28 1
    32     1    30 1
    33     5    31 1
    34     7    32 1
    35     8    33 1
    36     2    34 1
    37     3    35 1
    38     6    36 1
    39     4    37 1
    40     4    38 1
    41    12    39 1
    42    10    40 1
    43    16    41 1
    44    13    42 1
    45    14    43 1
    46    15    44 1
    47    22    45 1
    48    19    46 1
    49    17    47 1
    50    18    48 1
    51    18    49 1
    52    21    50 1
    53    69    51 1
    54    69    52 1
    55    23    53 1
    56    23    54 1
    57    24    55 1
    58    24    56 1
    59    25    57 1
    60    25    58 1
    61    26    59 1
    62    26    60 1
    63    27    61 1
    64    27    62 1
    65    28    63 1
    66    28    64 1
    67    29    65 1
    68    29    66 1
    69    29    67 1
    70    29    28 1
@<TRIPOS>SUBSTRUCTURE
     1 OOC         1 TEMP              0 ****  ****    0 ROOT
