@<TRIPOS>MOLECULE
OOC
   69    65     1     0     0
SMALL
bcc


@<TRIPOS>ATOM
      1 C2         -0.1560   -0.3430   -0.2990 c3        1 OOC     -0.040000
      2 C4         -1.7290    0.9860    1.1130 c2        1 OOC      0.166000
      3 C5          1.7620   -0.2270    3.2600 c1        1 OOC      0.120000
      4 C6          1.4840    1.2240    3.4870 c3        1 OOC     -0.150000
      5 O2          0.6070   -0.3510   -1.4860 oh        1 OOC     -0.336000
      6 O4         -1.4290    1.5700    2.1550 o         1 OOC     -0.290000
      7 C1          2.7250   -1.7360    1.7590 c1        1 OOC      0.238000
      8 C3         -0.8410    1.0170   -0.1070 c3        1 OOC     -0.081000
      9 O1          3.8560   -1.8340    1.1210 os        1 OOC     -0.227000
     10 O3          0.1380    2.0360   -0.0500 oh        1 OOC     -0.324000
     11 O5          2.5420   -0.4360    2.1920 os        1 OOC     -0.292000
     12 O6          1.9750    2.0420    2.4380 oh        1 OOC     -0.344000
     13 C1'         5.4280   -2.3320   -1.4720 c3        1 OOC     -0.118000
     14 C2'         6.5820   -1.7260   -0.6600 c3        1 OOC      0.006000
     15 C3'         6.2040   -1.4700    0.8160 c3        1 OOC     -0.005000
     16 C4'         4.8460   -0.7880    0.9910 c3        1 OOC     -0.089000
     17 C5'         3.4220   -1.3080   -2.2050 c2        1 OOC     -0.207000
     18 C6'         2.7740   -1.3440   -3.3860 c2        1 OOC      0.000000
     19 O3'         6.2940   -2.6550    1.5760 oh        1 OOC     -0.305000
     20 O5'         4.8130   -1.2670   -2.2020 os        1 OOC     -0.236000
     21 O6'         3.3740   -1.4370   -4.6080 oh        1 OOC     -0.255000
     22 O2'         7.0890   -0.5370   -1.2270 oh        1 OOC     -0.303000
     23 CB          9.5260   -4.3280   -3.4110 c3        1 OOC     -0.216000
     24 CC          9.6920   -4.8940   -4.7970 c3        1 OOC     -0.157000
     25 CD         11.1360   -5.2500   -5.0830 c3        1 OOC     -0.158000
     26 CF         11.2980   -5.8180   -6.4760 c3        1 OOC     -0.162000
     27 CG         12.7420   -6.1710   -6.7590 c3        1 OOC     -0.139000
     28 CH         12.9010   -6.7560   -8.1490 c3        1 OOC     -0.247000
     29 CI         14.2880   -6.9630   -8.5130 c1        1 OOC     -0.045000
     30 H2          0.5140   -0.5610    0.5800 h1        1 OOC      0.095000
     31 HA          1.1390    0.4600   -1.4920 ho        1 OOC      0.222000
     32 H1         -0.9100   -1.1630   -0.4230 h1        1 OOC      0.095000
     33 H3         -1.4550    1.2690   -1.0200 h1        1 OOC      0.146000
     34 H4          2.6660    1.4240    0.2830 ha        1 OOC      0.003000
     35 H5          2.4790    0.7820    0.1630 ha        1 OOC      0.003000
     36 HB         -2.6670    0.4010    1.0070 h4        1 OOC      0.108000
     37 H61C        0.3630    1.3330    3.5740 h1        1 OOC      0.126500
     38 H62C        1.9540    1.5050    4.4710 h1        1 OOC      0.126500
     39 H6          1.8000    2.9590    2.6830 ho        1 OOC      0.208000
     40 HC          0.5530    2.0000    0.8270 ho        1 OOC      0.230000
     41 H4'         4.8370   -0.1500    1.9100 h1        1 OOC      0.116000
     42 H1'         4.6870   -2.8340   -0.7960 h2        1 OOC      0.124000
     43 H2'         6.3430    0.0380   -1.4440 ho        1 OOC      0.216000
     44 H3'         5.6170   -3.2650    1.2540 ho        1 OOC      0.212000
     45 HD          7.4600   -2.4410   -0.6710 h1        1 OOC      0.153000
     46 HE          6.9980   -0.7950    1.2540 h1        1 OOC      0.142000
     47 H5'         4.5690   -0.1820    0.0890 h1        1 OOC      0.116000
     48 H6'1        1.6770   -1.2680   -3.4800 h4        1 OOC      0.190000
     49 H6'2        2.9290   -1.2490   -1.2260 h4        1 OOC      0.156000
     50 H6'         4.3370   -1.4910   -4.4820 ho        1 OOC      0.234000
     51 HA1C        4.2140   -4.9520   -2.3450 h1        1 OOC      0.108000
     52 HA2C        4.0530   -3.7610   -3.6980 h1        1 OOC      0.108000
     53 HB1C        8.4520   -4.0710   -3.2200 hc        1 OOC      0.077000
     54 HB2C        5.1580   -5.1920   -3.8760 h1        1 OOC      0.108000
     55 HC1C        9.8540   -5.0660   -2.6400 hc        1 OOC      0.077000
     56 HC2C       10.1360   -3.4000   -3.2890 hc        1 OOC      0.077000
     57 HD1C        9.3340   -4.1480   -5.5540 hc        1 OOC      0.075500
     58 HD2C        9.0530   -5.8100   -4.9090 hc        1 OOC      0.075500
     59 HF1C       11.4960   -5.9970   -4.3280 hc        1 OOC      0.081000
     60 HF2C       11.7760   -4.3350   -4.9730 hc        1 OOC      0.081000
     61 HG1C       10.6560   -6.7320   -6.5860 hc        1 OOC      0.075500
     62 HG2C       10.9380   -5.0690   -7.2310 hc        1 OOC      0.075500
     63 HH1C       13.3880   -5.2590   -6.6630 hc        1 OOC      0.092500
     64 HH2C       13.1050   -6.9140   -6.0020 hc        1 OOC      0.092500
     65 HI1C       12.2550   -7.6740   -8.2450 hc        1 OOC      0.109500
     66 HI2C       12.5140   -6.0110   -8.9130 hc        1 OOC      0.109500
     67 HI3C       14.4540   -7.7000   -9.3180 ha        1 OOC      0.029000
     68 S1          6.1550   -3.5530   -2.5630 ss        1 OOC      0.074000
     69 CA          4.7630   -4.4320   -3.1620 c3        1 OOC     -0.351000
@<TRIPOS>BOND
     1    1    5 1   
     2    1    8 1   
     3    1   30 1   
     4    1   32 1   
     5    2    6 1   
     6    2    8 1   
     7    2   36 1   
     8    3    4 1   
     9    3   11 1   
    10    4   12 1   
    11    4   37 1   
    12    4   38 1   
    13    5   31 1   
    14    7    9 1   
    15    7   11 1   
    16    8   10 1   
    17    8   33 1   
    18    9   16 1   
    19   10   40 1   
    20   12   39 1   
    21   13   14 1   
    22   13   20 1   
    23   13   42 1   
    24   13   68 1   
    25   14   15 1   
    26   14   22 1   
    27   14   45 1   
    28   15   16 1   
    29   15   19 1   
    30   15   46 1   
    31   16   41 1   
    32   16   47 1   
    33   17   18 1   
    34   17   20 1   
    35   17   49 1   
    36   18   21 1   
    37   18   48 1   
    38   19   44 1   
    39   21   50 1   
    40   22   43 1   
    41   23   24 1   
    42   23   53 1   
    43   23   55 1   
    44   23   56 1   
    45   24   25 1   
    46   24   57 1   
    47   24   58 1   
    48   25   26 1   
    49   25   59 1   
    50   25   60 1   
    51   26   27 1   
    52   26   61 1   
    53   26   62 1   
    54   27   28 1   
    55   27   63 1   
    56   27   64 1   
    57   28   29 1   
    58   28   65 1   
    59   28   66 1   
    60   29   67 1   
    61   34   35 1   
    62   51   69 1   
    63   52   69 1   
    64   54   69 1   
    65   68   69 1   
@<TRIPOS>SUBSTRUCTURE
     1 OOC         1 TEMP              0 ****  ****    0 ROOT
