@<TRIPOS>MOLECULE
OOF
   60    64     1     0     0
SMALL
bcc


@<TRIPOS>ATOM
      1 N1           0.0000     0.0000     0.0000 na         1 OOF       0.363700
      2 C2           1.3690     0.0000     0.0000 cc         1 OOF       0.306400
      3 N3           1.8120     0.0000     1.2330 nd         1 OOF      -0.517100
      4 C4          -0.4090    -0.0000     1.3200 ca         1 OOF      -0.237200
      5 C5           0.7650     0.0000     2.0940 ca         1 OOF       0.076400
      6 C6          -0.6450     1.2720    -1.9640 c          1 OOF       0.525100
      7 C7          -0.8700     0.0050    -1.1790 c3         1 OOF      -0.147000
      8 C8          -1.6500    -0.0010     1.9420 ca         1 OOF      -0.152000
      9 C9           0.6700    -0.0010     3.4910 ca         1 OOF      -0.052000
     10 C11         -1.7280    -0.0010     3.3200 ca         1 OOF       0.082900
     11 C12          2.2190     0.0010    -1.2090 ca         1 OOF      -0.095900
     12 C13         -0.5700    -0.0030     4.0910 ca         1 OOF       0.054900
     13 C16         -0.3410     4.8150    -5.4470 ca         1 OOF      -0.091600
     14 O17         -0.9130     6.3220    -7.1340 o          1 OOF      -0.880800
     15 C18         -2.3320    -0.0670    -0.7350 c3         1 OOF      -0.070700
     16 C19          3.4440     0.6720    -1.2040 ca         1 OOF      -0.078000
     17 C20          1.8050    -0.6740    -2.3580 ca         1 OOF      -0.078000
     18 C21         -0.6650     2.4630    -4.0180 ca         1 OOF      -0.164400
     19 C22         -1.3600     3.9210    -5.7910 ca         1 OOF      -0.063500
     20 C23          0.5180     4.5160    -4.3850 ca         1 OOF      -0.063500
     21 F24         -2.9360    -0.0010     3.9250 f          1 OOF      -0.123900
     22 F25         -0.6610    -0.0050     5.4400 f          1 OOF      -0.124900
     23 O26          0.8140     6.9270    -5.8760 o          1 OOF      -0.880800
     24 C27          3.8130     0.0020    -3.4740 ca         1 OOF      -0.020600
     25 C28         -1.5180     2.7540    -5.0780 ca         1 OOF      -0.136500
     26 C29          0.3530     3.3470    -3.6770 ca         1 OOF      -0.136500
     27 C30          4.2330     0.6690    -2.3350 ca         1 OOF      -0.095000
     28 C31          2.6030    -0.6700    -3.4830 ca         1 OOF      -0.095000
     29 Cl32         4.8130     0.0020    -4.8940 cl         1 OOF      -0.023400
     30 C33         -3.2440     0.1610    -1.9430 c3         1 OOF      -0.055400
     31 C34         -2.6150    -1.4460    -0.1350 c3         1 OOF      -0.055400
     32 C35         -4.0770    -1.5180     0.3090 c3         1 OOF      -0.022400
     33 C36         -4.7050     0.0880    -1.4990 c3         1 OOF      -0.022400
     34 C37         -4.9880    -1.2910    -0.8990 c3         1 OOF      -0.027400
     35 H7          -0.6390    -0.8510    -1.8020 h1         1 OOF       0.054700
     36 H8          -2.5550     0.0010     1.3470 ha         1 OOF       0.171000
     37 H9           1.5680    -0.0030     4.0970 ha         1 OOF       0.126000
     38 HN10        -1.0350     0.4270    -3.7800 hn         1 OOF       0.153500
     39 H18         -2.5260     0.6950     0.0100 hc         1 OOF       0.074700
     40 H19          3.7730     1.1940    -0.3140 ha         1 OOF       0.116500
     41 H20          0.8580    -1.2010    -2.3660 ha         1 OOF       0.116500
     42 H22         -2.0240     4.1470    -6.6160 ha         1 OOF       0.128500
     43 H23          1.3110     5.2040    -4.1190 ha         1 OOF       0.128500
     44 H28         -2.3070     2.0610    -5.3430 ha         1 OOF       0.102000
     45 H29          1.0180     3.1150    -2.8540 ha         1 OOF       0.102000
     46 H30          5.1820     1.1910    -2.3330 ha         1 OOF       0.116000
     47 H31          2.2810    -1.1920    -4.3760 ha         1 OOF       0.116000
     48 H33         -3.0440     1.1380    -2.3650 hc         1 OOF       0.032200
     49 H33A        -3.0550    -0.6050    -2.6860 hc         1 OOF       0.032200
     50 H34         -1.9710    -1.6050     0.7210 hc         1 OOF       0.032200
     51 H34A        -2.4280    -2.2080    -0.8810 hc         1 OOF       0.032200
     52 H35         -4.2770    -2.4960     0.7310 hc         1 OOF       0.019450
     53 H35A        -4.2660    -0.7530     1.0520 hc         1 OOF       0.019450
     54 H36         -5.3500     0.2470    -2.3550 hc         1 OOF       0.019450
     55 H36A        -4.8930     0.8510    -0.7530 hc         1 OOF       0.019450
     56 H37         -4.7960    -2.0540    -1.6440 hc         1 OOF       0.013200
     57 H37A        -6.0230    -1.3400    -0.5830 hc         1 OOF       0.013200
     58 N10         -0.8280     1.2800    -3.2990 ns         1 OOF       0.003900
     59 O15         -0.2980     2.2850    -1.3930 o          1 OOF      -0.612100
     60 C14         -0.1690     6.0660    -6.2080 c          1 OOF       0.970200
@<TRIPOS>BOND
     1     1     2 1   
     2     1     4 1   
     3     1     7 1   
     4     2     3 2   
     5     2    11 1   
     6     3     5 1   
     7     4     5 ar  
     8     4     8 ar  
     9     5     9 ar  
    10     6     7 1   
    11     6    58 1   
    12     6    59 2   
    13     7    15 1   
    14     7    35 1   
    15     8    10 ar  
    16     8    36 1   
    17     9    12 ar  
    18     9    37 1   
    19    10    12 ar  
    20    10    21 1   
    21    11    16 ar  
    22    11    17 ar  
    23    12    22 1   
    24    13    19 ar  
    25    13    20 ar  
    26    13    60 1   
    27    14    60 1   
    28    15    30 1   
    29    15    31 1   
    30    15    39 1   
    31    16    27 ar  
    32    16    40 1   
    33    17    28 ar  
    34    17    41 1   
    35    18    25 ar  
    36    18    26 ar  
    37    18    58 1   
    38    19    25 ar  
    39    19    42 1   
    40    20    26 ar  
    41    20    43 1   
    42    23    60 1   
    43    24    27 ar  
    44    24    28 ar  
    45    24    29 1   
    46    25    44 1   
    47    26    45 1   
    48    27    46 1   
    49    28    47 1   
    50    30    33 1   
    51    30    48 1   
    52    30    49 1   
    53    31    32 1   
    54    31    50 1   
    55    31    51 1   
    56    32    34 1   
    57    32    52 1   
    58    32    53 1   
    59    33    34 1   
    60    33    54 1   
    61    33    55 1   
    62    34    56 1   
    63    34    57 1   
    64    38    58 1   
@<TRIPOS>SUBSTRUCTURE
     1 OOF         1 TEMP              0 ****  ****    0 ROOT
