@<TRIPOS>MOLECULE
molecule
   17    16     1     0     0
SMALL
bcc


@<TRIPOS>ATOM
      1 C2           0.0000     0.0000     0.0000 c3         1 OOG      -0.182400
      2 C3           1.5310     0.0000     0.0000 c3         1 OOG      -0.059400
      3 C4           2.0400     0.0000     1.4430 c3         1 OOG      -0.188400
      4 C6           4.2930    -0.0000     2.7320 c          1 OOG       0.802600
      5 O4           5.6390    -0.0000     2.7320 o          1 OOG      -0.838800
      6 O3           3.6870     0.0000     3.7830 o          1 OOG      -0.838800
      7 C5           3.5470    -0.0000     1.4420 c          1 OOG       0.469100
      8 C1          -0.5030     0.0000    -1.4200 c          1 OOG       0.891600
      9 O1           0.2820     0.0000    -2.3380 o          1 OOG      -0.872300
     10 O2          -1.8230     0.0000    -1.6650 o          1 OOG      -0.872300
     11 O5           4.1510    -0.0000     0.3960 o          1 OOG      -0.547100
     12 H21C        -0.3610     0.8840     0.5110 hc         1 OOG       0.020700
     13 H22C        -0.3610    -0.8840     0.5110 hc         1 OOG       0.020700
     14 H31C         1.8920     0.8850    -0.5110 hc         1 OOG       0.048700
     15 H32C         1.8920    -0.8850    -0.5110 hc         1 OOG       0.048700
     16 H41C         1.6790    -0.8850     1.9530 hc         1 OOG       0.048700
     17 H42C         1.6790     0.8850     1.9530 hc         1 OOG       0.048700
@<TRIPOS>BOND
     1     1     2 1
     2     1     8 1
     3     2     3 1
     4     3     7 1
     5     4     5 1
     6     4     6 1
     7     4     7 1
     8     7    11 2
     9     8     9 1
    10     8    10 1
    11     1    12 1
    12     1    13 1
    13     2    14 1
    14     2    15 1
    15     3    16 1
    16     3    17 1
@<TRIPOS>SUBSTRUCTURE
     1 OOG         1 TEMP              0 ****  ****    0 ROOT
