@<TRIPOS>MOLECULE
OOG
   17    16     1     0     0
SMALL
bcc


@<TRIPOS>ATOM
      1 C2          0.0810    0.3120   -0.0330 c3        1 OOG     -0.182400
      2 C3          1.5240   -0.1400   -0.0350 c3        1 OOG     -0.055400
      3 C4          2.1690    0.0770    1.3180 c3        1 OOG     -0.186400
      4 C6          4.2120   -0.1750    2.8250 c         1 OOG      0.842600
      5 O4          4.8350    0.9100    3.0000 o         1 OOG     -0.839300
      6 O3          4.0590   -1.0560    3.7180 o         1 OOG     -0.839300
      7 C5          3.5790   -0.4280    1.4510 c         1 OOG      0.475100
      8 C1         -0.5850    0.1830   -1.4090 c         1 OOG      0.905600
      9 O1         -0.2660    0.9970   -2.3270 o         1 OOG     -0.870300
     10 O2         -1.4720   -0.7100   -1.5690 o         1 OOG     -0.870300
     11 O5          4.1800   -1.0040    0.5340 o         1 OOG     -0.599100
     12 H21C       -0.5010   -0.2910    0.7090 hc        1 OOG      0.013200
     13 H22C        0.0280    1.3870    0.2790 hc        1 OOG      0.013200
     14 H31C        1.5820   -1.2260   -0.3050 hc        1 OOG      0.042700
     15 H32C        2.0920    0.4230   -0.8210 hc        1 OOG      0.042700
     16 H41C        1.5620   -0.4320    2.1150 hc        1 OOG      0.052700
     17 H42C        2.1850    1.1730    1.5610 hc        1 OOG      0.052700
@<TRIPOS>BOND
     1    1    2 1   
     2    1    8 1   
     3    1   12 1   
     4    1   13 1   
     5    2    3 1   
     6    2   14 1   
     7    2   15 1   
     8    3    7 1   
     9    3   16 1   
    10    3   17 1   
    11    4    5 1   
    12    4    6 1   
    13    4    7 1   
    14    7   11 2   
    15    8    9 1   
    16    8   10 1   
@<TRIPOS>SUBSTRUCTURE
     1 OOG         1 TEMP              0 ****  ****    0 ROOT
