@<TRIPOS>MOLECULE
OOK
   60    64     1     0     0
SMALL
bcc


@<TRIPOS>ATOM
      1 N1           0.0000     0.0000     0.0000 na         1 OOK       0.359700
      2 C2           1.3700     0.0000     0.0000 cc         1 OOK       0.310400
      3 N3           1.8120     0.0000     1.2330 nd         1 OOK      -0.519100
      4 C4          -0.4080    -0.0000     1.3200 ca         1 OOK      -0.235200
      5 C5           0.7660     0.0000     2.0940 ca         1 OOK       0.078400
      6 C6          -0.6700     1.2890    -1.9440 c          1 OOK       0.522100
      7 N7          -0.7650     1.2950    -3.2890 ns         1 OOK      -0.004100
      8 C8          -0.4910     2.4630    -4.0040 ca         1 OOK      -0.208400
      9 C9          -0.8700     0.0060    -1.1790 c3         1 OOK      -0.144000
     10 C10         -1.6490    -0.0010     1.9420 ca         1 OOK      -0.150000
     11 C11          0.2350     2.3960    -5.1900 ca         1 OOK       0.094400
     12 C12         -0.9500     3.6900    -3.5320 ca         1 OOK       0.094400
     13 C13          0.0530     4.7820    -5.4240 ca         1 OOK      -0.044600
     14 C14          0.6710    -0.0010     3.4890 ca         1 OOK      -0.053000
     15 C15          0.3420     6.0150    -6.1800 c          1 OOK       0.965200
     16 C16         -1.7270    -0.0010     3.3210 ca         1 OOK       0.081900
     17 C17          2.2200     0.0010    -1.2100 ca         1 OOK      -0.095900
     18 C18         -0.5690    -0.0020     4.0910 ca         1 OOK       0.055900
     19 C19         -0.6800     4.8440    -4.2350 ca         1 OOK      -0.103500
     20 C20          0.5070     3.5470    -5.8980 ca         1 OOK      -0.103500
     21 O22         -0.0570     7.0860    -5.7700 o          1 OOK      -0.868300
     22 C23         -2.3300    -0.1020    -0.7370 c3         1 OOK      -0.071700
     23 C24          3.5570     0.3910    -1.1250 ca         1 OOK      -0.089500
     24 C25          1.6900    -0.3930    -2.4390 ca         1 OOK      -0.089500
     25 F26         -1.6580     3.7490    -2.3840 f          1 OOK      -0.137900
     26 F27          0.6740     1.2030    -5.6470 f          1 OOK      -0.137900
     27 F28         -2.9360    -0.0020     3.9240 f          1 OOK      -0.123900
     28 F29         -0.6590    -0.0030     5.4390 f          1 OOK      -0.124900
     29 O30          1.0500     5.9530    -7.3250 o          1 OOK      -0.868300
     30 C31          3.8130     0.0030    -3.4750 ca         1 OOK      -0.020600
     31 C32          2.4880    -0.3900    -3.5640 ca         1 OOK      -0.092000
     32 C33          4.3460     0.3900    -2.2570 ca         1 OOK      -0.092000
     33 Cl34         4.8120     0.0040    -4.8950 cl         1 OOK      -0.021400
     34 C35         -3.2450     0.0730    -1.9510 c3         1 OOK      -0.055400
     35 C36         -2.5720    -1.4760    -0.1100 c3         1 OOK      -0.055400
     36 C37         -4.7050    -0.0350    -1.5090 c3         1 OOK      -0.021400
     37 C38         -4.0330    -1.5850     0.3330 c3         1 OOK      -0.021400
     38 C39         -4.9470    -1.4100    -0.8810 c3         1 OOK      -0.027400
     39 HN7         -1.0610     0.4700    -3.7730 hn         1 OOK       0.163500
     40 H9          -0.6220    -0.8350    -1.8150 h1         1 OOK       0.061700
     41 H10         -2.5540    -0.0000     1.3470 ha         1 OOK       0.170000
     42 H14          1.5690    -0.0020     4.0950 ha         1 OOK       0.126000
     43 H19         -1.0370     5.7990    -3.8680 ha         1 OOK       0.148500
     44 H20          1.0730     3.4950    -6.8200 ha         1 OOK       0.148500
     45 H23         -2.5490     0.6690    -0.0080 hc         1 OOK       0.076700
     46 H24          3.9750     0.6940    -0.1730 ha         1 OOK       0.121000
     47 H25          0.6540    -0.7010    -2.5090 ha         1 OOK       0.121000
     48 H32          2.0770    -0.6950    -4.5190 ha         1 OOK       0.119000
     49 H33          5.3830     0.6940    -2.1930 ha         1 OOK       0.119000
     50 H35         -3.0310    -0.7010    -2.6780 hc         1 OOK       0.031700
     51 H35A        -3.0740     1.0470    -2.3930 hc         1 OOK       0.031700
     52 H36         -1.9250    -1.5980     0.7500 hc         1 OOK       0.031700
     53 H36A        -2.3600    -2.2470    -0.8410 hc         1 OOK       0.031700
     54 H37         -4.9180     0.7360    -0.7780 hc         1 OOK       0.019700
     55 H37A        -5.3520     0.0860    -2.3690 hc         1 OOK       0.019700
     56 H38         -4.2470    -0.8110     1.0600 hc         1 OOK       0.019700
     57 H38A        -4.2030    -2.5590     0.7750 hc         1 OOK       0.019700
     58 H39         -4.7300    -2.1810    -1.6100 hc         1 OOK       0.013200
     59 H39A        -5.9810    -1.4840    -0.5660 hc         1 OOK       0.013200
     60 O21         -0.4240     2.3180    -1.3490 o          1 OOK      -0.587100
@<TRIPOS>BOND
     1     1     2 1   
     2     1     4 1   
     3     1     9 1   
     4     2     3 2   
     5     2    17 1   
     6     3     5 1   
     7     4     5 ar  
     8     4    10 ar  
     9     5    14 ar  
    10     6     7 1   
    11     6     9 1   
    12     6    60 2   
    13     7     8 1   
    14     7    39 1   
    15     8    11 ar  
    16     8    12 ar  
    17     9    22 1   
    18     9    40 1   
    19    10    16 ar  
    20    10    41 1   
    21    11    20 ar  
    22    11    26 1   
    23    12    19 ar  
    24    12    25 1   
    25    13    15 1   
    26    13    19 ar  
    27    13    20 ar  
    28    14    18 ar  
    29    14    42 1   
    30    15    21 1   
    31    15    29 1   
    32    16    18 ar  
    33    16    27 1   
    34    17    23 ar  
    35    17    24 ar  
    36    18    28 1   
    37    19    43 1   
    38    20    44 1   
    39    22    34 1   
    40    22    35 1   
    41    22    45 1   
    42    23    32 ar  
    43    23    46 1   
    44    24    31 ar  
    45    24    47 1   
    46    30    31 ar  
    47    30    32 ar  
    48    30    33 1   
    49    31    48 1   
    50    32    49 1   
    51    34    36 1   
    52    34    50 1   
    53    34    51 1   
    54    35    37 1   
    55    35    52 1   
    56    35    53 1   
    57    36    38 1   
    58    36    54 1   
    59    36    55 1   
    60    37    38 1   
    61    37    56 1   
    62    37    57 1   
    63    38    58 1   
    64    38    59 1   
@<TRIPOS>SUBSTRUCTURE
     1 OOK         1 TEMP              0 ****  ****    0 ROOT
