@<TRIPOS>MOLECULE
molecule
   79    83     1     0     0
SMALL
bcc


@<TRIPOS>ATOM
      1 O1           0.0000     0.0000     0.0000 os         1 OOO      -0.435900
      2 C3           8.9660    -2.3250     2.8200 ca         1 OOO      -0.387400
      3 C4          10.1770    -2.5720     3.4790 ca         1 OOO       0.772200
      4 N5          10.7340    -3.7730     3.3480 nb         1 OOO      -0.830000
      5 C6          10.1610    -4.7120     2.6160 ca         1 OOO       0.736900
      6 N7           9.0250    -4.5230     1.9810 nb         1 OOO      -0.796000
      7 N8           7.2340    -2.8630     1.5120 na         1 OOO      -0.124100
      8 C9           7.0360    -1.5670     1.9100 cc         1 OOO      -0.141100
      9 C10          8.0570    -1.1770     2.7110 cd         1 OOO      -0.086400
     10 C12          8.2240     0.1500     3.3520 ca         1 OOO      -0.024800
     11 C13          6.0630    -3.4440     0.9770 c3         1 OOO       0.034000
     12 C14          5.8400    -2.6870    -0.3340 c3         1 OOO      -0.087400
     13 C15          5.3390    -1.2740    -0.0290 c3         1 OOO      -0.123900
     14 C16          4.0210    -1.3560     0.7440 c3         1 OOO       0.161500
     15 C17          4.2440    -2.1130     2.0550 c3         1 OOO      -0.123900
     16 C18          4.7440    -3.5260     1.7480 c3         1 OOO      -0.087400
     17 C19          8.5050     0.2370     4.7150 ca         1 OOO      -0.119500
     18 C20          8.6650     1.4720     5.3070 ca         1 OOO      -0.140500
     19 C21          8.5470     2.6290     4.5470 ca         1 OOO       0.096100
     20 C22          8.2670     2.5450     3.1900 ca         1 OOO      -0.140500
     21 C23          8.1060     1.3130     2.5920 ca         1 OOO      -0.119500
     22 O24          8.7040     3.8440     5.1340 os         1 OOO      -0.250200
     23 N25          3.5400     0.0010     1.0370 n7         1 OOO      -0.794200
     24 C26          1.3420     0.0000     0.0000 c          1 OOO       0.630100
     25 C27          2.0960     0.0000     1.3050 c3         1 OOO       0.121500
     26 C28          1.7270     1.2490     2.1070 c3         1 OOO      -0.075400
     27 C29          0.2630     1.1610     2.5450 c3         1 OOO      -0.089700
     28 C30          0.0890    -0.0160     3.5090 c3         1 OOO      -0.088100
     29 C31         -0.1400     2.4590     3.2470 c3         1 OOO      -0.088100
     30 C32          7.5900     4.5740     5.3990 ca         1 OOO       0.137100
     31 C33          7.6940     5.7790     6.0790 ca         1 OOO      -0.182000
     32 C34          6.5590     6.5200     6.3470 ca         1 OOO      -0.094000
     33 C35          5.3200     6.0610     5.9390 ca         1 OOO      -0.162000
     34 C36          5.2140     4.8600     5.2630 ca         1 OOO      -0.094000
     35 C37          6.3460     4.1180     4.9860 ca         1 OOO      -0.182000
     36 O38          1.9460     0.0010    -1.0470 o          1 OOO      -0.524000
     37 C39         -0.6590     0.0000    -1.2940 c3         1 OOO       0.143400
     38 C40         -2.1760     0.0000    -1.0930 c3         1 OOO      -0.096100
     39 C2           8.3950    -3.3510     2.0480 ca         1 OOO       0.534800
     40 H1          10.6480    -5.6760     2.5360 h5         1 OOO       0.059100
     41 H2           6.0970    -1.0310     1.8460 h4         1 OOO       0.212000
     42 H3          11.3930    -1.8490     4.9950 hn         1 OOO       0.446800
     43 H4          10.6160    -0.6260     4.0430 hn         1 OOO       0.446800
     44 H5           6.2230    -4.5030     0.8130 h1         1 OOO       0.074700
     45 H6           6.7000    -2.8250    -0.9790 hc         1 OOO       0.059950
     46 H7           4.9510    -3.0680    -0.8220 hc         1 OOO       0.059950
     47 H8           5.1790    -0.7410    -0.9580 hc         1 OOO       0.061450
     48 H9           6.0760    -0.7530     0.5710 hc         1 OOO       0.061450
     49 H10          3.2870    -1.8830     0.1460 h1         1 OOO       0.073700
     50 H11          4.9820    -1.5910     2.6510 hc         1 OOO       0.061450
     51 H12          3.3090    -2.1730     2.5990 hc         1 OOO       0.061450
     52 H13          4.8940    -4.0970     2.6570 hc         1 OOO       0.059950
     53 H14          3.9960    -4.0090     1.1320 hc         1 OOO       0.059950
     54 H15          8.5970    -0.6640     5.3080 ha         1 OOO       0.147500
     55 H16          8.8830     1.5410     6.3660 ha         1 OOO       0.148000
     56 H17          8.1750     3.4490     2.6000 ha         1 OOO       0.148000
     57 H18          7.8870     1.2490     1.5330 ha         1 OOO       0.147500
     58 H19          4.0270     0.3630     1.8330 hn         1 OOO       0.362800
     59 H21          1.8350    -0.8850     1.8730 h1         1 OOO       0.055700
     60 H22          1.8670     2.1290     1.4910 hc         1 OOO       0.055700
     61 H23          2.3610     1.3170     2.9830 hc         1 OOO       0.055700
     62 H24         -0.3660     1.0110     1.6750 hc         1 OOO       0.082700
     63 H25          0.9420    -0.0650     4.1760 hc         1 OOO       0.034367
     64 H26         -0.8150     0.1230     4.0880 hc         1 OOO       0.034367
     65 H27          0.0190    -0.9380     2.9440 hc         1 OOO       0.034367
     66 H28         -1.2000     2.4350     3.4700 hc         1 OOO       0.034367
     67 H29          0.0740     3.3010     2.6000 hc         1 OOO       0.034367
     68 H30          0.4210     2.5600     4.1680 hc         1 OOO       0.034367
     69 H31          8.6640     6.1400     6.3980 ha         1 OOO       0.143500
     70 H32          6.6400     7.4620     6.8770 ha         1 OOO       0.132000
     71 H33          4.4310     6.6420     6.1530 ha         1 OOO       0.131000
     72 H34          4.2420     4.5030     4.9420 ha         1 OOO       0.132000
     73 H35          6.2620     3.1770     4.4560 ha         1 OOO       0.143500
     74 H36         -0.3680     0.8850    -1.8470 h1         1 OOO       0.050200
     75 H37         -0.3680    -0.8840    -1.8470 h1         1 OOO       0.050200
     76 H38         -2.6660    -0.1400    -2.0490 hc         1 OOO       0.047367
     77 H39         -2.4520    -0.8050    -0.4240 hc         1 OOO       0.047367
     78 H40         -2.4840     0.9470    -0.6660 hc         1 OOO       0.047367
     79 N11         10.7800    -1.5920     4.2470 nv         1 OOO      -1.009500
@<TRIPOS>BOND
     1    33    34 ar
     2    33    32 ar
     3    34    35 ar
     4    32    31 ar
     5    35    30 ar
     6    31    30 ar
     7    30    22 1
     8    22    19 1
     9    79     3 1
    10    18    19 ar
    11    18    17 ar
    12    19    20 ar
    13    17    10 ar
    14     3     4 ar
    15     3     2 ar
    16     4     5 ar
    17    20    21 ar
    18    10    21 ar
    19    10     9 1
    20     2     9 1
    21     2    39 ar
    22     5     6 ar
    23     9     8 2
    24    39     6 ar
    25    39     7 1
    26     8     7 1
    27     7    11 1
    28    16    11 1
    29    16    15 1
    30    11    12 1
    31    15    14 1
    32    12    13 1
    33    14    13 1
    34    14    23 1
    35    23    25 1
    36     1    37 1
    37     1    24 1
    38    25    26 1
    39    25    24 1
    40    29    27 1
    41    27    26 1
    42    27    28 1
    43    37    38 1
    44    24    36 2
    45     5    40 1
    46     8    41 1
    47    79    42 1
    48    79    43 1
    49    11    44 1
    50    12    45 1
    51    12    46 1
    52    13    47 1
    53    13    48 1
    54    14    49 1
    55    15    50 1
    56    15    51 1
    57    16    52 1
    58    16    53 1
    59    17    54 1
    60    18    55 1
    61    20    56 1
    62    21    57 1
    63    23    58 1
    64    25    59 1
    65    26    60 1
    66    26    61 1
    67    27    62 1
    68    28    63 1
    69    28    64 1
    70    28    65 1
    71    29    66 1
    72    29    67 1
    73    29    68 1
    74    31    69 1
    75    32    70 1
    76    33    71 1
    77    34    72 1
    78    35    73 1
    79    37    74 1
    80    37    75 1
    81    38    76 1
    82    38    77 1
    83    38    78 1
@<TRIPOS>SUBSTRUCTURE
     1 OOO         1 TEMP              0 ****  ****    0 ROOT
