@<TRIPOS>MOLECULE
OOO
   79    83     1     0     0
SMALL
bcc


@<TRIPOS>ATOM
      1 O1           0.0000     0.0000     0.0000 os         1 OOO      -0.414900
      2 C3           8.9660    -2.3250     2.8200 ca         1 OOO      -0.391400
      3 C4          10.1770    -2.5720     3.4790 ca         1 OOO       0.591200
      4 N5          10.7340    -3.7730     3.3480 nb         1 OOO      -0.738000
      5 C6          10.1610    -4.7120     2.6160 ca         1 OOO       0.686900
      6 N7           9.0250    -4.5230     1.9810 nb         1 OOO      -0.684000
      7 N8           7.2340    -2.8630     1.5120 na         1 OOO       0.368900
      8 C9           7.0360    -1.5670     1.9100 cc         1 OOO      -0.347100
      9 C10          8.0570    -1.1770     2.7110 cd         1 OOO      -0.054400
     10 C12          8.2240     0.1500     3.3520 ca         1 OOO      -0.013800
     11 C13          6.0630    -3.4440     0.9770 c3         1 OOO      -0.099000
     12 C14          5.8400    -2.6870    -0.3340 c3         1 OOO      -0.022900
     13 C15          5.3390    -1.2740    -0.0290 c3         1 OOO      -0.094400
     14 C16          4.0210    -1.3560     0.7440 c3         1 OOO       0.114500
     15 C17          4.2440    -2.1130     2.0550 c3         1 OOO      -0.094400
     16 C18          4.7440    -3.5260     1.7480 c3         1 OOO      -0.022900
     17 C19          8.5050     0.2370     4.7150 ca         1 OOO      -0.095000
     18 C20          8.6650     1.4720     5.3070 ca         1 OOO      -0.117500
     19 C21          8.5470     2.6290     4.5470 ca         1 OOO       0.099100
     20 C22          8.2670     2.5450     3.1900 ca         1 OOO      -0.117500
     21 C23          8.1060     1.3130     2.5920 ca         1 OOO      -0.095000
     22 O24          8.7040     3.8440     5.1340 os         1 OOO      -0.220200
     23 N25          3.5400     0.0010     1.0370 n7         1 OOO      -0.549200
     24 C26          1.3420     0.0000     0.0000 c          1 OOO       0.688100
     25 C27          2.0960     0.0000     1.3050 c3         1 OOO       0.060500
     26 C28          1.7270     1.2490     2.1070 c3         1 OOO      -0.021400
     27 C29          0.2630     1.1610     2.5450 c3         1 OOO      -0.081700
     28 C30          0.0890    -0.0160     3.5090 c3         1 OOO       0.005900
     29 C31         -0.1400     2.4590     3.2470 c3         1 OOO       0.005900
     30 C32          7.5900     4.5740     5.3990 ca         1 OOO       0.145100
     31 C33          7.6940     5.7790     6.0790 ca         1 OOO      -0.172000
     32 C34          6.5590     6.5200     6.3470 ca         1 OOO      -0.060500
     33 C35          5.3200     6.0610     5.9390 ca         1 OOO      -0.141000
     34 C36          5.2140     4.8600     5.2630 ca         1 OOO      -0.060500
     35 C37          6.3460     4.1180     4.9860 ca         1 OOO      -0.172000
     36 O38          1.9460     0.0010    -1.0470 o          1 OOO      -0.562000
     37 C39         -0.6590     0.0000    -1.2940 c3         1 OOO       0.221400
     38 C40         -2.1760     0.0000    -1.0930 c3         1 OOO      -0.004100
     39 C2           8.3950    -3.3510     2.0480 ca         1 OOO       0.316800
     40 H1          10.6480    -5.6760     2.5360 h5         1 OOO      -0.005900
     41 H2           6.0970    -1.0310     1.8460 h4         1 OOO       0.215000
     42 H3          11.3930    -1.8490     4.9950 hn         1 OOO       0.281300
     43 H4          10.6160    -0.6260     4.0430 hn         1 OOO       0.281300
     44 H5           6.2230    -4.5030     0.8130 h1         1 OOO       0.049700
     45 H6           6.7000    -2.8250    -0.9790 hc         1 OOO       0.029950
     46 H7           4.9510    -3.0680    -0.8220 hc         1 OOO       0.029950
     47 H8           5.1790    -0.7410    -0.9580 hc         1 OOO       0.044200
     48 H9           6.0760    -0.7530     0.5710 hc         1 OOO       0.044200
     49 H10          3.2870    -1.8830     0.1460 h1         1 OOO       0.049700
     50 H11          4.9820    -1.5910     2.6510 hc         1 OOO       0.044200
     51 H12          3.3090    -2.1730     2.5990 hc         1 OOO       0.044200
     52 H13          4.8940    -4.0970     2.6570 hc         1 OOO       0.029950
     53 H14          3.9960    -4.0090     1.1320 hc         1 OOO       0.029950
     54 H15          8.5970    -0.6640     5.3080 ha         1 OOO       0.118000
     55 H16          8.8830     1.5410     6.3660 ha         1 OOO       0.119500
     56 H17          8.1750     3.4490     2.6000 ha         1 OOO       0.119500
     57 H18          7.8870     1.2490     1.5330 ha         1 OOO       0.118000
     58 H19          4.0270     0.3630     1.8330 hn         1 OOO       0.259800
     59 H21          1.8350    -0.8850     1.8730 h1         1 OOO       0.038700
     60 H22          1.8670     2.1290     1.4910 hc         1 OOO       0.027700
     61 H23          2.3610     1.3170     2.9830 hc         1 OOO       0.027700
     62 H24         -0.3660     1.0110     1.6750 hc         1 OOO       0.060700
     63 H25          0.9420    -0.0650     4.1760 hc         1 OOO       0.003867
     64 H26         -0.8150     0.1230     4.0880 hc         1 OOO       0.003867
     65 H27          0.0190    -0.9380     2.9440 hc         1 OOO       0.003867
     66 H28         -1.2000     2.4350     3.4700 hc         1 OOO       0.003867
     67 H29          0.0740     3.3010     2.6000 hc         1 OOO       0.003867
     68 H30          0.4210     2.5600     4.1680 hc         1 OOO       0.003867
     69 H31          8.6640     6.1400     6.3980 ha         1 OOO       0.121000
     70 H32          6.6400     7.4620     6.8770 ha         1 OOO       0.101000
     71 H33          4.4310     6.6420     6.1530 ha         1 OOO       0.105000
     72 H34          4.2420     4.5030     4.9420 ha         1 OOO       0.101000
     73 H35          6.2620     3.1770     4.4560 ha         1 OOO       0.121000
     74 H36         -0.3680     0.8850    -1.8470 h1         1 OOO       0.010200
     75 H37         -0.3680    -0.8840    -1.8470 h1         1 OOO       0.010200
     76 H38         -2.6660    -0.1400    -2.0490 hc         1 OOO       0.010700
     77 H39         -2.4520    -0.8050    -0.4240 hc         1 OOO       0.010700
     78 H40         -2.4840     0.9470    -0.6660 hc         1 OOO       0.010700
     79 N11         10.7800    -1.5920     4.2470 nv         1 OOO      -0.536500
@<TRIPOS>BOND
     1     1    24 1   
     2     1    37 1   
     3     2     3 ar  
     4     2     9 1   
     5     2    39 ar  
     6     3     4 ar  
     7     3    79 1   
     8     4     5 ar  
     9     5     6 ar  
    10     5    40 1   
    11     6    39 ar  
    12     7     8 1   
    13     7    11 1   
    14     7    39 1   
    15     8     9 2   
    16     8    41 1   
    17     9    10 1   
    18    10    17 ar  
    19    10    21 ar  
    20    11    12 1   
    21    11    16 1   
    22    11    44 1   
    23    12    13 1   
    24    12    45 1   
    25    12    46 1   
    26    13    14 1   
    27    13    47 1   
    28    13    48 1   
    29    14    15 1   
    30    14    23 1   
    31    14    49 1   
    32    15    16 1   
    33    15    50 1   
    34    15    51 1   
    35    16    52 1   
    36    16    53 1   
    37    17    18 ar  
    38    17    54 1   
    39    18    19 ar  
    40    18    55 1   
    41    19    20 ar  
    42    19    22 1   
    43    20    21 ar  
    44    20    56 1   
    45    21    57 1   
    46    22    30 1   
    47    23    25 1   
    48    23    58 1   
    49    24    25 1   
    50    24    36 2   
    51    25    26 1   
    52    25    59 1   
    53    26    27 1   
    54    26    60 1   
    55    26    61 1   
    56    27    28 1   
    57    27    29 1   
    58    27    62 1   
    59    28    63 1   
    60    28    64 1   
    61    28    65 1   
    62    29    66 1   
    63    29    67 1   
    64    29    68 1   
    65    30    31 ar  
    66    30    35 ar  
    67    31    32 ar  
    68    31    69 1   
    69    32    33 ar  
    70    32    70 1   
    71    33    34 ar  
    72    33    71 1   
    73    34    35 ar  
    74    34    72 1   
    75    35    73 1   
    76    37    38 1   
    77    37    74 1   
    78    37    75 1   
    79    38    76 1   
    80    38    77 1   
    81    38    78 1   
    82    42    79 1   
    83    43    79 1   
@<TRIPOS>SUBSTRUCTURE
     1 OOO         1 TEMP              0 ****  ****    0 ROOT
