@<TRIPOS>MOLECULE
OOQ
   73    77     1     0     0
SMALL
bcc


@<TRIPOS>ATOM
      1 C1           0.0000     0.0000     0.0000 ca         1 OOQ       0.319800
      2 C2           1.4060     0.0000     0.0000 ca         1 OOQ      -0.407400
      3 C3           2.0800     0.0000     1.2290 ca         1 OOQ       0.600200
      4 N4           1.3560    -0.0010     2.3460 nb         1 OOQ      -0.744000
      5 C5           0.0370    -0.0010     2.3010 ca         1 OOQ       0.706900
      6 N6          -0.6370    -0.0010     1.1710 nb         1 OOQ      -0.703000
      7 N7          -0.4100    -0.0060    -1.3060 na         1 OOQ       0.322900
      8 C8           0.6740    -0.0020    -2.1430 cc         1 OOQ      -0.334100
      9 C9           1.8140     0.0000    -1.4100 cd         1 OOQ      -0.014400
     10 N10          3.4620    -0.0010     1.2790 nv         1 OOQ      -0.517500
     11 C11          3.2030     0.0010    -1.9300 ca         1 OOQ      -0.032800
     12 C12         -1.8070    -0.0150    -1.7460 c3         1 OOQ      -0.075000
     13 C13         -2.0820     1.2270    -2.5960 c3         1 OOQ      -0.019900
     14 C14         -1.1630     1.2210    -3.8190 c3         1 OOQ      -0.089900
     15 C15         -1.4280    -0.0350    -4.6500 c3         1 OOQ      -0.080500
     16 C16         -1.1530    -1.2770    -3.8000 c3         1 OOQ      -0.089900
     17 C17         -2.0720    -1.2720    -2.5770 c3         1 OOQ      -0.019900
     18 C18          3.5860    -0.9220    -2.9020 ca         1 OOQ      -0.095000
     19 C19          4.8770    -0.9190    -3.3840 ca         1 OOQ      -0.109500
     20 C20          5.7970     0.0030    -2.9020 ca         1 OOQ       0.112100
     21 C21          5.4190     0.9240    -1.9350 ca         1 OOQ      -0.109500
     22 C22          4.1270     0.9300    -1.4540 ca         1 OOQ      -0.095000
     23 O23          7.0700     0.0040    -3.3790 os         1 OOQ      -0.219200
     24 N24         -0.5440    -0.0410    -5.8250 ny         1 OOQ       0.063000
     25 C25          0.1060    -1.2690    -7.8180 c          1 OOQ       0.993600
     26 C26         -0.8960    -1.1700    -6.6970 c3         1 OOQ      -0.233500
     27 C27         -2.2930    -0.9470    -7.2800 c3         1 OOQ      -0.008400
     28 C28         -2.7070    -2.1730    -8.0960 c3         1 OOQ      -0.068700
     29 C29         -2.8680    -3.3750    -7.1630 c3         1 OOQ       0.004400
     30 C30         -4.0350    -1.8930    -8.8010 c3         1 OOQ       0.004400
     31 C31          8.0250    -0.6260    -2.6470 ca         1 OOQ       0.143100
     32 C32          9.3280    -0.6970    -3.1190 ca         1 OOQ      -0.170000
     33 C33         10.2980    -1.3370    -2.3720 ca         1 OOQ      -0.059000
     34 C34          9.9720    -1.9070    -1.1550 ca         1 OOQ      -0.139000
     35 C35          8.6750    -1.8370    -0.6820 ca         1 OOQ      -0.059000
     36 C36          7.7020    -1.1940    -1.4220 ca         1 OOQ      -0.170000
     37 O37          0.7960    -0.3070    -8.1060 o          1 OOQ      -0.823300
     38 O38          0.2270    -2.3130    -8.4360 o          1 OOQ      -0.823300
     39 H1          -0.5140    -0.0020     3.2340 h5         1 OOQ      -0.003900
     40 H2           0.6280     0.0020    -3.2250 h4         1 OOQ       0.167000
     41 H3           3.9910    -0.1900     0.4510 hn         1 OOQ       0.284300
     42 H4           3.9290     0.1050     2.1570 hn         1 OOQ       0.284300
     43 H5          -2.4620    -0.0110    -0.8820 h1         1 OOQ       0.079700
     44 H6          -3.1150     1.2190    -2.9230 hc         1 OOQ       0.038700
     45 H7          -1.8910     2.1160    -2.0070 hc         1 OOQ       0.038700
     46 H8          -0.1300     1.2260    -3.4930 hc         1 OOQ       0.056950
     47 H9          -1.3610     2.0990    -4.4220 hc         1 OOQ       0.056950
     48 H10         -2.4620    -0.0420    -4.9710 hx         1 OOQ       0.096700
     49 H11         -0.1200    -1.2690    -3.4740 hc         1 OOQ       0.056950
     50 H12         -1.3430    -2.1660    -4.3900 hc         1 OOQ       0.056950
     51 H13         -1.8740    -2.1500    -1.9750 hc         1 OOQ       0.038700
     52 H14         -3.1050    -1.2770    -2.9030 hc         1 OOQ       0.038700
     53 H15          2.8690    -1.6420    -3.2780 ha         1 OOQ       0.114000
     54 H16          5.1750    -1.6370    -4.1390 ha         1 OOQ       0.124500
     55 H17          6.1390     1.6440    -1.5640 ha         1 OOQ       0.124500
     56 H18          3.8330     1.6500    -0.6990 ha         1 OOQ       0.114000
     57 H19         -0.6540     0.8170    -6.3290 hn         1 OOQ       0.244300
     58 H20          0.4070    -0.1330    -5.5270 hn         1 OOQ       0.244300
     59 H21         -0.8870    -2.0880    -6.1220 hx         1 OOQ       0.094700
     60 H22         -3.0010    -0.7940    -6.4750 hc         1 OOQ       0.015700
     61 H23         -2.2820    -0.0740    -7.9220 hc         1 OOQ       0.015700
     62 H24         -1.9450    -2.3890    -8.8350 hc         1 OOQ       0.097700
     63 H25         -3.4100    -4.1600    -7.6770 hc         1 OOQ       0.002700
     64 H26         -3.4180    -3.0750    -6.2790 hc         1 OOQ       0.002700
     65 H27         -1.8900    -3.7410    -6.8740 hc         1 OOQ       0.002700
     66 H28         -4.3020    -2.7410    -9.4180 hc         1 OOQ       0.002700
     67 H29         -4.8080    -1.7260    -8.0610 hc         1 OOQ       0.002700
     68 H30         -3.9340    -1.0110    -9.4220 hc         1 OOQ       0.002700
     69 H31          9.5850    -0.2510    -4.0720 ha         1 OOQ       0.118500
     70 H32         11.3150    -1.3930    -2.7410 ha         1 OOQ       0.102500
     71 H33         10.7340    -2.4100    -0.5710 ha         1 OOQ       0.106000
     72 H34          8.4220    -2.2820     0.2730 ha         1 OOQ       0.102500
     73 H35          6.6850    -1.1390    -1.0510 ha         1 OOQ       0.118500
@<TRIPOS>BOND
     1     1     2 ar  
     2     1     6 ar  
     3     1     7 1   
     4     2     3 ar  
     5     2     9 1   
     6     3     4 ar  
     7     3    10 1   
     8     4     5 ar  
     9     5     6 ar  
    10     5    39 1   
    11     7     8 1   
    12     7    12 1   
    13     8     9 2   
    14     8    40 1   
    15     9    11 1   
    16    10    41 1   
    17    10    42 1   
    18    11    18 ar  
    19    11    22 ar  
    20    12    13 1   
    21    12    17 1   
    22    12    43 1   
    23    13    14 1   
    24    13    44 1   
    25    13    45 1   
    26    14    15 1   
    27    14    46 1   
    28    14    47 1   
    29    15    16 1   
    30    15    24 1   
    31    15    48 1   
    32    16    17 1   
    33    16    49 1   
    34    16    50 1   
    35    17    51 1   
    36    17    52 1   
    37    18    19 ar  
    38    18    53 1   
    39    19    20 ar  
    40    19    54 1   
    41    20    21 ar  
    42    20    23 1   
    43    21    22 ar  
    44    21    55 1   
    45    22    56 1   
    46    23    31 1   
    47    24    26 1   
    48    24    57 1   
    49    24    58 1   
    50    25    26 1   
    51    25    37 1   
    52    25    38 1   
    53    26    27 1   
    54    26    59 1   
    55    27    28 1   
    56    27    60 1   
    57    27    61 1   
    58    28    29 1   
    59    28    30 1   
    60    28    62 1   
    61    29    63 1   
    62    29    64 1   
    63    29    65 1   
    64    30    66 1   
    65    30    67 1   
    66    30    68 1   
    67    31    32 ar  
    68    31    36 ar  
    69    32    33 ar  
    70    32    69 1   
    71    33    34 ar  
    72    33    70 1   
    73    34    35 ar  
    74    34    71 1   
    75    35    36 ar  
    76    35    72 1   
    77    36    73 1   
@<TRIPOS>SUBSTRUCTURE
     1 OOQ         1 TEMP              0 ****  ****    0 ROOT
