@<TRIPOS>MOLECULE
molecule
   73    77     1     0     0
SMALL
bcc


@<TRIPOS>ATOM
      1 C1           0.0000     0.0000     0.0000 ca         1 OOQ       0.528800
      2 C2           1.4060     0.0000     0.0000 ca         1 OOQ      -0.400400
      3 C3           2.0800     0.0000     1.2290 ca         1 OOQ       0.781200
      4 N4           1.3560    -0.0010     2.3460 nb         1 OOQ      -0.836000
      5 C5           0.0370    -0.0010     2.3010 ca         1 OOQ       0.751900
      6 N6          -0.6370    -0.0010     1.1710 nb         1 OOQ      -0.812000
      7 N7          -0.4100    -0.0060    -1.3060 na         1 OOQ      -0.158100
      8 C8           0.6740    -0.0020    -2.1430 cc         1 OOQ      -0.139100
      9 C9           1.8140     0.0000    -1.4100 cd         1 OOQ      -0.051400
     10 N10          3.4620    -0.0010     1.2790 nv         1 OOQ      -0.993500
     11 C11          3.2030     0.0010    -1.9300 ca         1 OOQ      -0.038800
     12 C12         -1.8070    -0.0150    -1.7460 c3         1 OOQ       0.052000
     13 C13         -2.0820     1.2270    -2.5960 c3         1 OOQ      -0.085400
     14 C14         -1.1630     1.2210    -3.8190 c3         1 OOQ      -0.127400
     15 C15         -1.4280    -0.0350    -4.6500 c3         1 OOQ       0.091500
     16 C16         -1.1530    -1.2770    -3.8000 c3         1 OOQ      -0.127400
     17 C17         -2.0720    -1.2720    -2.5770 c3         1 OOQ      -0.085400
     18 C18          3.5860    -0.9220    -2.9020 ca         1 OOQ      -0.122000
     19 C19          4.8770    -0.9190    -3.3840 ca         1 OOQ      -0.133000
     20 C20          5.7970     0.0030    -2.9020 ca         1 OOQ       0.108100
     21 C21          5.4190     0.9240    -1.9350 ca         1 OOQ      -0.133000
     22 C22          4.1270     0.9300    -1.4540 ca         1 OOQ      -0.122000
     23 O23          7.0700     0.0040    -3.3790 os         1 OOQ      -0.247200
     24 N24         -0.5440    -0.0410    -5.8250 ny         1 OOQ      -0.702000
     25 C25          0.1060    -1.2690    -7.8180 c          1 OOQ       0.904600
     26 C26         -0.8960    -1.1700    -6.6970 c3         1 OOQ      -0.051500
     27 C27         -2.2930    -0.9470    -7.2800 c3         1 OOQ      -0.075400
     28 C28         -2.7070    -2.1730    -8.0960 c3         1 OOQ      -0.073700
     29 C29         -2.8680    -3.3750    -7.1630 c3         1 OOQ      -0.089100
     30 C30         -4.0350    -1.8930    -8.8010 c3         1 OOQ      -0.089100
     31 C31          8.0250    -0.6260    -2.6470 ca         1 OOQ       0.135100
     32 C32          9.3280    -0.6970    -3.1190 ca         1 OOQ      -0.181000
     33 C33         10.2980    -1.3370    -2.3720 ca         1 OOQ      -0.093000
     34 C34          9.9720    -1.9070    -1.1550 ca         1 OOQ      -0.160000
     35 C35          8.6750    -1.8370    -0.6820 ca         1 OOQ      -0.093000
     36 C36          7.7020    -1.1940    -1.4220 ca         1 OOQ      -0.181000
     37 O37          0.7960    -0.3070    -8.1060 o          1 OOQ      -0.777800
     38 O38          0.2270    -2.3130    -8.4360 o          1 OOQ      -0.777800
     39 H1          -0.5140    -0.0020     3.2340 h5         1 OOQ       0.062100
     40 H2           0.6280     0.0020    -3.2250 h4         1 OOQ       0.173000
     41 H3           3.9910    -0.1900     0.4510 hn         1 OOQ       0.449300
     42 H4           3.9290     0.1050     2.1570 hn         1 OOQ       0.449300
     43 H5          -2.4620    -0.0110    -0.8820 h1         1 OOQ       0.106700
     44 H6          -3.1150     1.2190    -2.9230 hc         1 OOQ       0.070450
     45 H7          -1.8910     2.1160    -2.0070 hc         1 OOQ       0.070450
     46 H8          -0.1300     1.2260    -3.4930 hc         1 OOQ       0.075700
     47 H9          -1.3610     2.0990    -4.4220 hc         1 OOQ       0.075700
     48 H10         -2.4620    -0.0420    -4.9710 hx         1 OOQ       0.108700
     49 H11         -0.1200    -1.2690    -3.4740 hc         1 OOQ       0.075700
     50 H12         -1.3430    -2.1660    -4.3900 hc         1 OOQ       0.075700
     51 H13         -1.8740    -2.1500    -1.9750 hc         1 OOQ       0.070450
     52 H14         -3.1050    -1.2770    -2.9030 hc         1 OOQ       0.070450
     53 H15          2.8690    -1.6420    -3.2780 ha         1 OOQ       0.144000
     54 H16          5.1750    -1.6370    -4.1390 ha         1 OOQ       0.154000
     55 H17          6.1390     1.6440    -1.5640 ha         1 OOQ       0.154000
     56 H18          3.8330     1.6500    -0.6990 ha         1 OOQ       0.144000
     57 H19         -0.6540     0.8170    -6.3290 hn         1 OOQ       0.449300
     58 H20          0.4070    -0.1330    -5.5270 hn         1 OOQ       0.449300
     59 H21         -0.8870    -2.0880    -6.1220 hx         1 OOQ       0.097700
     60 H22         -3.0010    -0.7940    -6.4750 hc         1 OOQ       0.039200
     61 H23         -2.2820    -0.0740    -7.9220 hc         1 OOQ       0.039200
     62 H24         -1.9450    -2.3890    -8.8350 hc         1 OOQ       0.116700
     63 H25         -3.4100    -4.1600    -7.6770 hc         1 OOQ       0.033533
     64 H26         -3.4180    -3.0750    -6.2790 hc         1 OOQ       0.033533
     65 H27         -1.8900    -3.7410    -6.8740 hc         1 OOQ       0.033533
     66 H28         -4.3020    -2.7410    -9.4180 hc         1 OOQ       0.033533
     67 H29         -4.8080    -1.7260    -8.0610 hc         1 OOQ       0.033533
     68 H30         -3.9340    -1.0110    -9.4220 hc         1 OOQ       0.033533
     69 H31          9.5850    -0.2510    -4.0720 ha         1 OOQ       0.141500
     70 H32         11.3150    -1.3930    -2.7410 ha         1 OOQ       0.134000
     71 H33         10.7340    -2.4100    -0.5710 ha         1 OOQ       0.132000
     72 H34          8.4220    -2.2820     0.2730 ha         1 OOQ       0.134000
     73 H35          6.6850    -1.1390    -1.0510 ha         1 OOQ       0.141500
@<TRIPOS>BOND
     1    34    35 ar
     2    34    33 ar
     3    35    36 ar
     4    33    32 ar
     5    36    31 ar
     6    32    31 ar
     7    31    23 1
     8    10     3 1
     9    23    20 1
    10    21    20 ar
    11    21    22 ar
    12    20    19 ar
    13     3     4 ar
    14     3     2 ar
    15     4     5 ar
    16    22    11 ar
    17    19    18 ar
    18    11    18 ar
    19    11     9 1
    20     2     9 1
    21     2     1 ar
    22     5     6 ar
    23     9     8 2
    24     1     6 ar
    25     1     7 1
    26    30    28 1
    27     8     7 1
    28     7    12 1
    29    13    12 1
    30    13    14 1
    31    28    29 1
    32    28    27 1
    33    12    17 1
    34    14    15 1
    35    27    26 1
    36    37    25 1
    37    26    25 1
    38    26    24 1
    39    17    16 1
    40    15    24 1
    41    15    16 1
    42    25    38 1
    43     5    39 1
    44     8    40 1
    45    10    41 1
    46    10    42 1
    47    12    43 1
    48    13    44 1
    49    13    45 1
    50    14    46 1
    51    14    47 1
    52    15    48 1
    53    16    49 1
    54    16    50 1
    55    17    51 1
    56    17    52 1
    57    18    53 1
    58    19    54 1
    59    21    55 1
    60    22    56 1
    61    24    57 1
    62    24    58 1
    63    26    59 1
    64    27    60 1
    65    27    61 1
    66    28    62 1
    67    29    63 1
    68    29    64 1
    69    29    65 1
    70    30    66 1
    71    30    67 1
    72    30    68 1
    73    32    69 1
    74    33    70 1
    75    34    71 1
    76    35    72 1
    77    36    73 1
@<TRIPOS>SUBSTRUCTURE
     1 OOQ         1 TEMP              0 ****  ****    0 ROOT
