@<TRIPOS>MOLECULE
OOS
   75    79     1     0     0
SMALL
bcc


@<TRIPOS>ATOM
      1 C1           0.0000     0.0000     0.0000 ca         1 OOS       0.289800
      2 C2           1.4050     0.0000     0.0000 ca         1 OOS      -0.361400
      3 C3           2.0790     0.0000     1.2290 ca         1 OOS       0.598200
      4 N4           1.3560     0.0010     2.3460 nb         1 OOS      -0.688000
      5 C5           0.0360     0.0010     2.3010 ca         1 OOS       0.672900
      6 N6          -0.6360     0.0010     1.1710 nb         1 OOS      -0.666000
      7 N7          -0.4090    -0.0050    -1.3060 na         1 OOS       0.308900
      8 C8           0.6750    -0.0030    -2.1420 cc         1 OOS      -0.275100
      9 C9           1.8140    -0.0010    -1.4100 cd         1 OOS      -0.027400
     10 N10          3.4620    -0.0010     1.2790 nv         1 OOS      -0.604500
     11 C11          3.2040    -0.0020    -1.9300 ca         1 OOS      -0.027800
     12 C12         -1.8070    -0.0110    -1.7460 c3         1 OOS      -0.071000
     13 C13         -2.0820     1.2350    -2.5910 c3         1 OOS      -0.035900
     14 C14         -3.5410     1.2270    -3.0500 c3         1 OOS      -0.022400
     15 C15         -3.8060    -0.0250    -3.8880 c3         1 OOS       0.102500
     16 C16         -3.5310    -1.2710    -3.0430 c3         1 OOS      -0.022400
     17 C17         -2.0710    -1.2640    -2.5840 c3         1 OOS      -0.035900
     18 C18          4.1320     0.9190    -1.4440 ca         1 OOS      -0.082000
     19 C19          5.4230     0.9120    -1.9270 ca         1 OOS      -0.123500
     20 C20          5.8010    -0.0100    -2.8930 ca         1 OOS       0.114100
     21 C21          4.8790    -0.9280    -3.3800 ca         1 OOS      -0.123500
     22 C22          3.5850    -0.9260    -2.9010 ca         1 OOS      -0.082000
     23 O23          7.0750    -0.0140    -3.3660 os         1 OOS      -0.217200
     24 N24         -5.2070    -0.0320    -4.3280 n7         1 OOS      -0.523200
     25 C25         -5.0630     0.0400    -6.7540 c          1 OOS       0.283100
     26 C26         -5.3680    -0.8240    -5.5570 c3         1 OOS       0.028500
     27 C27         -6.8080    -1.3330    -5.6490 c3         1 OOS      -0.017400
     28 C28         -7.0780    -2.3080    -4.5010 c3         1 OOS      -0.050700
     29 C29         -8.5510    -2.7210    -4.5200 c3         1 OOS       0.003400
     30 C30         -6.1980    -3.5480    -4.6670 c3         1 OOS       0.003400
     31 C31          7.2760     0.3460    -4.6620 ca         1 OOS       0.142100
     32 C32          8.5390     0.2360    -5.2250 ca         1 OOS      -0.170000
     33 C33          8.7400     0.6020    -6.5420 ca         1 OOS      -0.060500
     34 C34          7.6860     1.0790    -7.2970 ca         1 OOS      -0.138000
     35 C35          6.4260     1.1900    -6.7370 ca         1 OOS      -0.060500
     36 C36          6.2170     0.8200    -5.4230 ca         1 OOS      -0.170000
     37 O37         -4.7430     1.1990    -6.5990 o          1 OOS      -0.407100
     38 N38         -5.1470    -0.4760    -7.9950 nz         1 OOS       0.191600
     39 H1          -0.5200     0.0050     3.2310 h5         1 OOS      -0.000900
     40 H2           0.6280     0.0030    -3.2250 h4         1 OOS       0.144000
     41 H3           3.9460     0.7450     1.7380 hn         1 OOS       0.283800
     42 H4           3.9740    -0.7840     0.9240 hn         1 OOS       0.283800
     43 H5          -2.4620    -0.0120    -0.8830 h1         1 OOS       0.075700
     44 H6          -1.8960     2.1210    -1.9960 hc         1 OOS       0.030700
     45 H7          -1.4320     1.2320    -3.4570 hc         1 OOS       0.030700
     46 H8          -3.7340     2.1080    -3.6490 hc         1 OOS       0.029700
     47 H9          -4.1910     1.2240    -2.1830 hc         1 OOS       0.029700
     48 H10         -3.1510    -0.0250    -4.7510 h1         1 OOS       0.000700
     49 H11         -4.1800    -1.2690    -2.1760 hc         1 OOS       0.029700
     50 H12         -3.7170    -2.1580    -3.6370 hc         1 OOS       0.029700
     51 H13         -1.4210    -1.2610    -3.4510 hc         1 OOS       0.030700
     52 H14         -1.8790    -2.1460    -1.9840 hc         1 OOS       0.030700
     53 H15          3.8380     1.6390    -0.6900 ha         1 OOS       0.111500
     54 H16          6.1450     1.6270    -1.5500 ha         1 OOS       0.121000
     55 H17          5.1760    -1.6460    -4.1340 ha         1 OOS       0.121000
     56 H18          2.8660    -1.6420    -3.2800 ha         1 OOS       0.111500
     57 H19         -5.5090     0.9070    -4.4940 hn         1 OOS       0.285800
     58 H21         -4.6870    -1.6660    -5.5360 h1         1 OOS       0.090700
     59 H22         -6.9520    -1.8410    -6.5950 hc         1 OOS       0.014700
     60 H23         -7.4930    -0.4960    -5.5810 hc         1 OOS       0.014700
     61 H24         -6.8500    -1.8270    -3.5580 hc         1 OOS       0.061700
     62 H25         -9.1720    -1.8520    -4.3380 hc         1 OOS       0.011033
     63 H26         -8.7280    -3.4600    -3.7480 hc         1 OOS       0.011033
     64 H27         -8.7960    -3.1440    -5.4870 hc         1 OOS       0.011033
     65 H28         -6.0250    -4.0000    -3.6980 hc         1 OOS       0.011033
     66 H29         -6.6970    -4.2610    -5.3140 hc         1 OOS       0.011033
     67 H30         -5.2510    -3.2630    -5.1080 hc         1 OOS       0.011033
     68 H31          9.3660    -0.1380    -4.6330 ha         1 OOS       0.121000
     69 H32          9.7260     0.5160    -6.9830 ha         1 OOS       0.101500
     70 H33          7.8460     1.3680    -8.3290 ha         1 OOS       0.106000
     71 H34          5.6000     1.5620    -7.3320 ha         1 OOS       0.101500
     72 H35          5.2300     0.9070    -4.9850 ha         1 OOS       0.121000
     73 H36         -4.8940    -1.4450    -7.9720 hn         1 OOS       0.248800
     74 H37         -4.5230     0.0160    -8.6040 hn         1 OOS       0.248800
     75 H383        -6.0840    -0.3840    -8.3330 hn         1 OOS       0.248800
@<TRIPOS>BOND
     1     1     2 ar  
     2     1     6 ar  
     3     1     7 1   
     4     2     3 ar  
     5     2     9 1   
     6     3     4 ar  
     7     3    10 1   
     8     4     5 ar  
     9     5     6 ar  
    10     5    39 1   
    11     7     8 1   
    12     7    12 1   
    13     8     9 2   
    14     8    40 1   
    15     9    11 1   
    16    10    41 1   
    17    10    42 1   
    18    11    18 ar  
    19    11    22 ar  
    20    12    13 1   
    21    12    17 1   
    22    12    43 1   
    23    13    14 1   
    24    13    44 1   
    25    13    45 1   
    26    14    15 1   
    27    14    46 1   
    28    14    47 1   
    29    15    16 1   
    30    15    24 1   
    31    15    48 1   
    32    16    17 1   
    33    16    49 1   
    34    16    50 1   
    35    17    51 1   
    36    17    52 1   
    37    18    19 ar  
    38    18    53 1   
    39    19    20 ar  
    40    19    54 1   
    41    20    21 ar  
    42    20    23 1   
    43    21    22 ar  
    44    21    55 1   
    45    22    56 1   
    46    23    31 1   
    47    24    26 1   
    48    24    57 1   
    49    25    26 1   
    50    25    37 2   
    51    25    38 1   
    52    26    27 1   
    53    26    58 1   
    54    27    28 1   
    55    27    59 1   
    56    27    60 1   
    57    28    29 1   
    58    28    30 1   
    59    28    61 1   
    60    29    62 1   
    61    29    63 1   
    62    29    64 1   
    63    30    65 1   
    64    30    66 1   
    65    30    67 1   
    66    31    32 ar  
    67    31    36 ar  
    68    32    33 ar  
    69    32    68 1   
    70    33    34 ar  
    71    33    69 1   
    72    34    35 ar  
    73    34    70 1   
    74    35    36 ar  
    75    35    71 1   
    76    36    72 1   
    77    38    73 1   
    78    38    74 1   
    79    38    75 1   
@<TRIPOS>SUBSTRUCTURE
     1 OOS         1 TEMP              0 ****  ****    0 ROOT
