@<TRIPOS>MOLECULE
molecule
   77    81     1     0     0
SMALL
bcc


@<TRIPOS>ATOM
      1 N01          0.0000     0.0000     0.0000 nb         1 OOU      -0.826000
      2 C01          1.3210     0.0000     0.0000 ca         1 OOU       0.731900
      3 N02          2.0320     0.0000     1.1070 nb         1 OOU      -0.796000
      4 C02          1.4350     0.0010     2.2990 ca         1 OOU       0.515800
      5 C03          0.0310     0.0000     2.3460 ca         1 OOU      -0.383400
      6 C04         -0.6840    -0.0000     1.1410 ca         1 OOU       0.770200
      7 N03          1.8880     0.0010     3.5900 na         1 OOU      -0.152100
      8 C05          0.8330     0.0010     4.4630 cc         1 OOU      -0.088100
      9 C06         -0.3320    -0.0000     3.7690 cd         1 OOU      -0.085400
     10 C07         -1.7020    -0.0000     4.3360 ca         1 OOU      -0.020800
     11 C08          3.2990     0.0000     3.9830 c3         1 OOU       0.052000
     12 N04         -2.0680    -0.0000     1.1370 nv         1 OOU      -1.016500
     13 C09          3.5970     1.2500     4.8140 c3         1 OOU      -0.093400
     14 C10          5.0720     1.2490     5.2240 c3         1 OOU      -0.076900
     15 C11          5.3690    -0.0010     6.0560 c3         1 OOU       0.162500
     16 C12          5.0710    -1.2500     5.2250 c3         1 OOU      -0.076900
     17 C13          3.5970    -1.2490     4.8150 c3         1 OOU      -0.093400
     18 N05          6.7840    -0.0000     6.4500 n7         1 OOU      -0.795200
     19 C14          6.9770    -0.7100     7.7210 c3         1 OOU       0.086500
     20 C15         -2.6450     0.9200     3.8830 ca         1 OOU      -0.114500
     21 C16         -3.9210     0.9130     4.4070 ca         1 OOU      -0.144000
     22 C17         -4.2650    -0.0080     5.3870 ca         1 OOU       0.099100
     23 C18         -3.3270    -0.9260     5.8410 ca         1 OOU      -0.144000
     24 C19         -2.0510    -0.9240     5.3200 ca         1 OOU      -0.114500
     25 O01         -5.5220    -0.0120     5.9030 os         1 OOU      -0.249200
     26 C20         -5.6840     0.3780     7.1940 ca         1 OOU       0.136100
     27 C21         -6.9360     0.3130     7.7890 ca         1 OOU      -0.181500
     28 C22         -7.0970     0.7110     9.1020 ca         1 OOU      -0.094500
     29 C23         -6.0120     1.1740     9.8240 ca         1 OOU      -0.163000
     30 C24         -4.7630     1.2390     9.2330 ca         1 OOU      -0.094500
     31 C25         -4.5950     0.8380     7.9220 ca         1 OOU      -0.181500
     32 C26          6.6330     0.2070     8.8660 c          1 OOU       0.624100
     33 O02          6.2620     1.3410     8.6450 o          1 OOU      -0.619100
     34 N06          6.7340    -0.2320    10.1360 ns         1 OOU      -0.584900
     35 C27          8.4380    -1.1520     7.8430 c3         1 OOU      -0.061400
     36 C28          8.7450    -2.1970     6.7700 c3         1 OOU      -0.074700
     37 C29         10.2410    -2.5180     6.7860 c3         1 OOU      -0.089600
     38 C30          7.9470    -3.4710     7.0550 c3         1 OOU      -0.089600
     39 C31          6.3990     0.6600    11.2490 c3         1 OOU       0.100300
     40 H1           1.8400     0.0000    -0.9510 h5         1 OOU       0.058100
     41 H2           0.9160     0.0080     5.5430 h4         1 OOU       0.175000
     42 H3           3.9250    -0.0000     3.0980 h1         1 OOU       0.096700
     43 H4          -2.5700    -0.4950     1.8480 hn         1 OOU       0.445300
     44 H5          -2.5660     0.4620     0.4030 hn         1 OOU       0.445300
     45 H6           3.3880     2.1330     4.2240 hc         1 OOU       0.052700
     46 H7           2.9770     1.2470     5.7030 hc         1 OOU       0.052700
     47 H8           5.6920     1.2460     4.3360 hc         1 OOU       0.055950
     48 H9           5.2810     2.1330     5.8140 hc         1 OOU       0.055950
     49 H10          4.7430    -0.0000     6.9400 h1         1 OOU       0.037700
     50 H11          5.6920    -1.2480     4.3370 hc         1 OOU       0.055950
     51 H12          5.2790    -2.1330     5.8160 hc         1 OOU       0.055950
     52 H13          3.3880    -2.1330     4.2240 hc         1 OOU       0.052700
     53 H14          2.9760    -1.2470     5.7020 hc         1 OOU       0.052700
     54 H15          7.1050     0.9430     6.5430 hn         1 OOU       0.379800
     55 H17          6.3330    -1.5800     7.7500 h1         1 OOU       0.077700
     56 H18         -2.3770     1.6390     3.1180 ha         1 OOU       0.144500
     57 H19         -4.6540     1.6280     4.0540 ha         1 OOU       0.146500
     58 H20         -3.5980    -1.6430     6.6060 ha         1 OOU       0.146500
     59 H21         -1.3190    -1.6400     5.6750 ha         1 OOU       0.144500
     60 H22         -7.7860    -0.0490     7.2240 ha         1 OOU       0.144000
     61 H23         -8.0740     0.6600     9.5660 ha         1 OOU       0.132500
     62 H24         -6.1400     1.4870    10.8530 ha         1 OOU       0.131000
     63 H25         -3.9140     1.6000     9.8000 ha         1 OOU       0.132500
     64 H26         -3.6170     0.8900     7.4610 ha         1 OOU       0.144000
     65 H27          7.0120    -1.1760    10.3180 hn         1 OOU       0.314500
     66 H28          9.0860    -0.2950     7.7090 hc         1 OOU       0.046200
     67 H29          8.6040    -1.5810     8.8240 hc         1 OOU       0.046200
     68 H30          8.4690    -1.8090     5.7970 hc         1 OOU       0.076700
     69 H31         10.5070    -2.9520     7.7420 hc         1 OOU       0.033033
     70 H32         10.4670    -3.2220     5.9940 hc         1 OOU       0.033033
     71 H33         10.8070    -1.6070     6.6320 hc         1 OOU       0.033033
     72 H34          7.8960    -3.6340     8.1250 hc         1 OOU       0.033033
     73 H35          8.4350    -4.3160     6.5850 hc         1 OOU       0.033033
     74 H36          6.9450    -3.3660     6.6580 hc         1 OOU       0.033033
     75 H37          7.0170     1.5490    11.1980 h1         1 OOU       0.042700
     76 H38          6.5770     0.1500    12.1880 h1         1 OOU       0.042700
     77 H39          5.3550     0.9420    11.1840 h1         1 OOU       0.042700
@<TRIPOS>BOND
     1    29    28 ar
     2    29    30 ar
     3    28    27 ar
     4    30    31 ar
     5    27    26 ar
     6    31    26 ar
     7    26    25 1
     8    12     6 1
     9    25    22 1
    10    21    22 ar
    11    21    20 ar
    12    22    23 ar
    13    20    10 ar
    14     6     1 ar
    15     6     5 ar
    16     1     2 ar
    17    23    24 ar
    18    10    24 ar
    19    10     9 1
    20     5     9 1
    21     5     4 ar
    22     2     3 ar
    23     9     8 2
    24     4     3 ar
    25     4     7 1
    26     8     7 1
    27     7    11 1
    28    13    11 1
    29    13    14 1
    30    11    17 1
    31    37    36 1
    32    14    15 1
    33    17    16 1
    34    38    36 1
    35    36    35 1
    36    15    16 1
    37    15    18 1
    38    35    19 1
    39    19    18 1
    40    19    32 1
    41    34    32 1
    42    34    39 1
    43    32    33 2
    44     2    40 1
    45     8    41 1
    46    11    42 1
    47    12    43 1
    48    12    44 1
    49    13    45 1
    50    13    46 1
    51    14    47 1
    52    14    48 1
    53    15    49 1
    54    16    50 1
    55    16    51 1
    56    17    52 1
    57    17    53 1
    58    18    54 1
    59    19    55 1
    60    20    56 1
    61    21    57 1
    62    23    58 1
    63    24    59 1
    64    27    60 1
    65    28    61 1
    66    29    62 1
    67    30    63 1
    68    31    64 1
    69    34    65 1
    70    35    66 1
    71    35    67 1
    72    36    68 1
    73    37    69 1
    74    37    70 1
    75    37    71 1
    76    38    72 1
    77    38    73 1
    78    38    74 1
    79    39    75 1
    80    39    76 1
    81    39    77 1
@<TRIPOS>SUBSTRUCTURE
     1 OOU         1 TEMP              0 ****  ****    0 ROOT
