@<TRIPOS>MOLECULE
molecule
   80    84     1     0     0
SMALL
bcc


@<TRIPOS>ATOM
      1 N01          0.0000     0.0000     0.0000 nb         1 OOV      -0.786000
      2 C01          1.3210     0.0000     0.0000 ca         1 OOV       0.706900
      3 N02          2.0310     0.0000     1.1070 nb         1 OOV      -0.768000
      4 C02          1.4350     0.0010     2.2980 ca         1 OOV       0.496800
      5 C03          0.0300     0.0020     2.3450 ca         1 OOV      -0.343400
      6 C04         -0.6840     0.0000     1.1400 ca         1 OOV       0.759200
      7 N03          1.8890     0.0020     3.5900 na         1 OOV      -0.156100
      8 C05          0.8340     0.0030     4.4620 cc         1 OOV      -0.080100
      9 C06         -0.3310     0.0030     3.7680 cd         1 OOV      -0.085400
     10 C07         -1.7020     0.0050     4.3350 ca         1 OOV      -0.010800
     11 C08         -2.0510    -0.9180     5.3200 ca         1 OOV      -0.106500
     12 C09         -3.3260    -0.9140     5.8450 ca         1 OOV      -0.143000
     13 C10         -4.2620     0.0080     5.3950 ca         1 OOV       0.097100
     14 C11         -3.9160     0.9280     4.4140 ca         1 OOV      -0.143000
     15 C12         -2.6410     0.9330     3.8890 ca         1 OOV      -0.106500
     16 O01         -5.5170     0.0090     5.9140 os         1 OOV      -0.249200
     17 C13         -6.5250    -0.4840     5.1490 ca         1 OOV       0.137100
     18 C14         -6.2440    -1.0670     3.9220 ca         1 OOV      -0.182000
     19 C15         -7.2700    -1.5690     3.1450 ca         1 OOV      -0.095000
     20 C16         -8.5780    -1.4890     3.5890 ca         1 OOV      -0.163000
     21 C17         -8.8610    -0.9080     4.8110 ca         1 OOV      -0.095000
     22 C18         -7.8370    -0.4100     5.5940 ca         1 OOV      -0.182000
     23 C19          3.2990     0.0020     3.9830 c3         1 OOV       0.052000
     24 C20          3.5980     1.2510     4.8120 c3         1 OOV      -0.093900
     25 C21          5.0730     1.2510     5.2230 c3         1 OOV      -0.075900
     26 C22          5.3690     0.0010     6.0550 c3         1 OOV       0.159500
     27 C23          5.0700    -1.2480     5.2260 c3         1 OOV      -0.075900
     28 C24          3.5970    -1.2480     4.8150 c3         1 OOV      -0.093900
     29 N04          6.7850     0.0010     6.4490 n7         1 OOV      -0.793200
     30 C25          6.9980    -0.8270     7.6440 c3         1 OOV       0.091500
     31 C26          8.4700    -1.2350     7.7240 c3         1 OOV      -0.078400
     32 C27          6.6280    -0.0380     8.8740 c          1 OOV       0.628100
     33 O02          6.2250     1.1010     8.7660 o          1 OOV      -0.617100
     34 N05          6.7440    -0.5990    10.0940 n          1 OOV      -0.493800
     35 C28          6.3840     0.1670    11.2900 c3         1 OOV       0.096800
     36 C29          7.2310    -1.9750    10.2240 c3         1 OOV       0.096800
     37 N06         -2.0680     0.0010     1.1370 nv         1 OOV      -1.075500
     38 C30          8.8070    -2.1640     6.5560 c3         1 OOV      -0.067700
     39 C31          8.6980    -1.3900     5.2420 c3         1 OOV      -0.081600
     40 C32         10.2330    -2.6940     6.7190 c3         1 OOV      -0.081600
     41 H1           1.8400    -0.0000    -0.9510 h5         1 OOV       0.059100
     42 H2           0.9170     0.0050     5.5430 h4         1 OOV       0.178000
     43 H3          -1.3220    -1.6380     5.6720 ha         1 OOV       0.139500
     44 H4          -3.5990    -1.6310     6.6100 ha         1 OOV       0.144000
     45 H5          -4.6470     1.6480     4.0660 ha         1 OOV       0.144000
     46 H6          -2.3730     1.6520     3.1240 ha         1 OOV       0.139500
     47 H7          -5.2200    -1.1300     3.5730 ha         1 OOV       0.143000
     48 H8          -7.0510    -2.0240     2.1870 ha         1 OOV       0.132000
     49 H9          -9.3810    -1.8810     2.9780 ha         1 OOV       0.130000
     50 H10         -9.8860    -0.8490     5.1580 ha         1 OOV       0.132000
     51 H11         -8.0600     0.0450     6.5520 ha         1 OOV       0.143000
     52 H12          3.9250     0.0000     3.0980 h1         1 OOV       0.095700
     53 H13          2.9780     1.2510     5.7000 hc         1 OOV       0.052950
     54 H14          3.3900     2.1340     4.2200 hc         1 OOV       0.052950
     55 H15          5.2820     2.1340     5.8140 hc         1 OOV       0.055200
     56 H16          5.6940     1.2480     4.3360 hc         1 OOV       0.055200
     57 H17          4.7440     0.0030     6.9400 h1         1 OOV       0.039700
     58 H18          5.6910    -1.2470     4.3380 hc         1 OOV       0.055200
     59 H19          5.2780    -2.1310     5.8170 hc         1 OOV       0.055200
     60 H20          2.9760    -1.2450     5.7030 hc         1 OOV       0.052950
     61 H21          3.3880    -2.1310     4.2240 hc         1 OOV       0.052950
     62 H22          7.0800     0.9390     6.6350 hn         1 OOV       0.378800
     63 H24          6.3800    -1.7140     7.5840 h1         1 OOV       0.075700
     64 H25          9.0940    -0.3510     7.6740 hc         1 OOV       0.052700
     65 H26          8.6510    -1.7520     8.6600 hc         1 OOV       0.052700
     66 H27          6.5980    -0.4220    12.1740 h1         1 OOV       0.042867
     67 H28          6.9600     1.0840    11.3180 h1         1 OOV       0.042867
     68 H29          5.3270     0.4040    11.2610 h1         1 OOV       0.042867
     69 H30          6.8390    -2.4110    11.1350 h1         1 OOV       0.042867
     70 H31          6.8990    -2.5570     9.3730 h1         1 OOV       0.042867
     71 H32          8.3130    -1.9730    10.2610 h1         1 OOV       0.042867
     72 H33         -2.5680    -0.8580     1.2520 hn         1 OOV       0.440300
     73 H34         -2.5670     0.8490     0.9540 hn         1 OOV       0.440300
     74 H35          8.1130    -2.9950     6.5440 hc         1 OOV       0.040700
     75 H36          7.7460    -1.6080     4.7720 hc         1 OOV       0.035200
     76 H37          9.5030    -1.6850     4.5800 hc         1 OOV       0.035200
     77 H38          8.7670    -0.3270     5.4420 hc         1 OOV       0.035200
     78 H39         10.9270    -1.8630     6.7370 hc         1 OOV       0.035200
     79 H40         10.3080    -3.2470     7.6480 hc         1 OOV       0.035200
     80 H41         10.4730    -3.3470     5.8890 hc         1 OOV       0.035200
@<TRIPOS>BOND
     1    35    34 1
     2    36    34 1
     3    40    38 1
     4    34    32 1
     5    38    31 1
     6    38    39 1
     7    31    30 1
     8    32    30 1
     9    32    33 2
    10    30    29 1
    11    29    26 1
    12    27    26 1
    13    27    28 1
    14    26    25 1
    15    28    23 1
    16    25    24 1
    17    23    24 1
    18    23     7 1
    19     7     8 1
    20     7     4 1
    21     8     9 2
    22     3     4 ar
    23     3     2 ar
    24     4     5 ar
    25     2     1 ar
    26     9     5 1
    27     9    10 1
    28     5     6 ar
    29    15    10 ar
    30    15    14 ar
    31    10    11 ar
    32     1     6 ar
    33    14    13 ar
    34     6    37 1
    35    11    12 ar
    36    13    12 ar
    37    13    16 1
    38    16    17 1
    39    17    18 ar
    40    17    22 ar
    41    18    19 ar
    42    22    21 ar
    43    19    20 ar
    44    21    20 ar
    45     2    41 1
    46     8    42 1
    47    11    43 1
    48    12    44 1
    49    14    45 1
    50    15    46 1
    51    18    47 1
    52    19    48 1
    53    20    49 1
    54    21    50 1
    55    22    51 1
    56    23    52 1
    57    24    53 1
    58    24    54 1
    59    25    55 1
    60    25    56 1
    61    26    57 1
    62    27    58 1
    63    27    59 1
    64    28    60 1
    65    28    61 1
    66    29    62 1
    67    30    63 1
    68    31    64 1
    69    31    65 1
    70    35    66 1
    71    35    67 1
    72    35    68 1
    73    36    69 1
    74    36    70 1
    75    36    71 1
    76    37    72 1
    77    37    73 1
    78    38    74 1
    79    39    75 1
    80    39    76 1
    81    39    77 1
    82    40    78 1
    83    40    79 1
    84    40    80 1
@<TRIPOS>SUBSTRUCTURE
     1 OOV         1 TEMP              0 ****  ****    0 ROOT
