@<TRIPOS>MOLECULE
OOV
   80    84     1     0     0
SMALL
bcc


@<TRIPOS>ATOM
      1 N01          0.0000     0.0000     0.0000 nb         1 OOV      -0.676000
      2 C01          1.3210     0.0000     0.0000 ca         1 OOV       0.644900
      3 N02          2.0310     0.0000     1.1070 nb         1 OOV      -0.635000
      4 C02          1.4350     0.0010     2.2980 ca         1 OOV       0.274800
      5 C03          0.0300     0.0020     2.3450 ca         1 OOV      -0.341400
      6 C04         -0.6840     0.0000     1.1400 ca         1 OOV       0.592200
      7 N03          1.8890     0.0020     3.5900 na         1 OOV       0.324900
      8 C05          0.8340     0.0030     4.4620 cc         1 OOV      -0.246100
      9 C06         -0.3310     0.0030     3.7680 cd         1 OOV      -0.059400
     10 C07         -1.7020     0.0050     4.3350 ca         1 OOV      -0.004800
     11 C08         -2.0510    -0.9180     5.3200 ca         1 OOV      -0.083500
     12 C09         -3.3260    -0.9140     5.8450 ca         1 OOV      -0.121000
     13 C10         -4.2620     0.0080     5.3950 ca         1 OOV       0.100100
     14 C11         -3.9160     0.9280     4.4140 ca         1 OOV      -0.121000
     15 C12         -2.6410     0.9330     3.8890 ca         1 OOV      -0.083500
     16 O01         -5.5170     0.0090     5.9140 os         1 OOV      -0.220200
     17 C13         -6.5250    -0.4840     5.1490 ca         1 OOV       0.145100
     18 C14         -6.2440    -1.0670     3.9220 ca         1 OOV      -0.171500
     19 C15         -7.2700    -1.5690     3.1450 ca         1 OOV      -0.061000
     20 C16         -8.5780    -1.4890     3.5890 ca         1 OOV      -0.142000
     21 C17         -8.8610    -0.9080     4.8110 ca         1 OOV      -0.061000
     22 C18         -7.8370    -0.4100     5.5940 ca         1 OOV      -0.171500
     23 C19          3.2990     0.0020     3.9830 c3         1 OOV      -0.080000
     24 C20          3.5980     1.2510     4.8120 c3         1 OOV      -0.035900
     25 C21          5.0730     1.2510     5.2230 c3         1 OOV      -0.024400
     26 C22          5.3690     0.0010     6.0550 c3         1 OOV       0.111500
     27 C23          5.0700    -1.2480     5.2260 c3         1 OOV      -0.024400
     28 C24          3.5970    -1.2480     4.8150 c3         1 OOV      -0.035900
     29 N04          6.7850     0.0010     6.4490 n7         1 OOV      -0.569200
     30 C25          6.9980    -0.8270     7.6440 c3         1 OOV       0.042500
     31 C26          8.4700    -1.2350     7.7240 c3         1 OOV      -0.049400
     32 C27          6.6280    -0.0380     8.8740 c          1 OOV       0.558100
     33 O02          6.2250     1.1010     8.7660 o          1 OOV      -0.653100
     34 N05          6.7440    -0.5990    10.0940 n          1 OOV      -0.154800
     35 C28          6.3840     0.1670    11.2900 c3         1 OOV       0.080300
     36 C29          7.2310    -1.9750    10.2240 c3         1 OOV       0.080300
     37 N06         -2.0680     0.0010     1.1370 nv         1 OOV      -0.652500
     38 C30          8.8070    -2.1640     6.5560 c3         1 OOV      -0.041700
     39 C31          8.6980    -1.3900     5.2420 c3         1 OOV      -0.003600
     40 C32         10.2330    -2.6940     6.7190 c3         1 OOV      -0.003600
     41 H1           1.8400    -0.0000    -0.9510 h5         1 OOV      -0.003900
     42 H2           0.9170     0.0050     5.5430 h4         1 OOV       0.153000
     43 H3          -1.3220    -1.6380     5.6720 ha         1 OOV       0.112500
     44 H4          -3.5990    -1.6310     6.6100 ha         1 OOV       0.117000
     45 H5          -4.6470     1.6480     4.0660 ha         1 OOV       0.117000
     46 H6          -2.3730     1.6520     3.1240 ha         1 OOV       0.112500
     47 H7          -5.2200    -1.1300     3.5730 ha         1 OOV       0.120500
     48 H8          -7.0510    -2.0240     2.1870 ha         1 OOV       0.101500
     49 H9          -9.3810    -1.8810     2.9780 ha         1 OOV       0.105000
     50 H10         -9.8860    -0.8490     5.1580 ha         1 OOV       0.101500
     51 H11         -8.0600     0.0450     6.5520 ha         1 OOV       0.120500
     52 H12          3.9250     0.0000     3.0980 h1         1 OOV       0.071700
     53 H13          2.9780     1.2510     5.7000 hc         1 OOV       0.024200
     54 H14          3.3900     2.1340     4.2200 hc         1 OOV       0.024200
     55 H15          5.2820     2.1340     5.8140 hc         1 OOV       0.027450
     56 H16          5.6940     1.2480     4.3360 hc         1 OOV       0.027450
     57 H17          4.7440     0.0030     6.9400 h1         1 OOV       0.024700
     58 H18          5.6910    -1.2470     4.3380 hc         1 OOV       0.027450
     59 H19          5.2780    -2.1310     5.8170 hc         1 OOV       0.027450
     60 H20          2.9760    -1.2450     5.7030 hc         1 OOV       0.024200
     61 H21          3.3880    -2.1310     4.2240 hc         1 OOV       0.024200
     62 H22          7.0800     0.9390     6.6350 hn         1 OOV       0.286800
     63 H24          6.3800    -1.7140     7.5840 h1         1 OOV       0.052700
     64 H25          9.0940    -0.3510     7.6740 hc         1 OOV       0.032200
     65 H26          8.6510    -1.7520     8.6600 hc         1 OOV       0.032200
     66 H27          6.5980    -0.4220    12.1740 h1         1 OOV       0.014033
     67 H28          6.9600     1.0840    11.3180 h1         1 OOV       0.014033
     68 H29          5.3270     0.4040    11.2610 h1         1 OOV       0.014033
     69 H30          6.8390    -2.4110    11.1350 h1         1 OOV       0.014033
     70 H31          6.8990    -2.5570     9.3730 h1         1 OOV       0.014033
     71 H32          8.3130    -1.9730    10.2610 h1         1 OOV       0.014033
     72 H33         -2.5680    -0.8580     1.2520 hn         1 OOV       0.281300
     73 H34         -2.5670     0.8490     0.9540 hn         1 OOV       0.281300
     74 H35          8.1130    -2.9950     6.5440 hc         1 OOV       0.018700
     75 H36          7.7460    -1.6080     4.7720 hc         1 OOV       0.007200
     76 H37          9.5030    -1.6850     4.5800 hc         1 OOV       0.007200
     77 H38          8.7670    -0.3270     5.4420 hc         1 OOV       0.007200
     78 H39         10.9270    -1.8630     6.7370 hc         1 OOV       0.007200
     79 H40         10.3080    -3.2470     7.6480 hc         1 OOV       0.007200
     80 H41         10.4730    -3.3470     5.8890 hc         1 OOV       0.007200
@<TRIPOS>BOND
     1     1     2 ar  
     2     1     6 ar  
     3     2     3 ar  
     4     2    41 1   
     5     3     4 ar  
     6     4     5 ar  
     7     4     7 1   
     8     5     6 ar  
     9     5     9 1   
    10     6    37 1   
    11     7     8 1   
    12     7    23 1   
    13     8     9 2   
    14     8    42 1   
    15     9    10 1   
    16    10    11 ar  
    17    10    15 ar  
    18    11    12 ar  
    19    11    43 1   
    20    12    13 ar  
    21    12    44 1   
    22    13    14 ar  
    23    13    16 1   
    24    14    15 ar  
    25    14    45 1   
    26    15    46 1   
    27    16    17 1   
    28    17    18 ar  
    29    17    22 ar  
    30    18    19 ar  
    31    18    47 1   
    32    19    20 ar  
    33    19    48 1   
    34    20    21 ar  
    35    20    49 1   
    36    21    22 ar  
    37    21    50 1   
    38    22    51 1   
    39    23    24 1   
    40    23    28 1   
    41    23    52 1   
    42    24    25 1   
    43    24    53 1   
    44    24    54 1   
    45    25    26 1   
    46    25    55 1   
    47    25    56 1   
    48    26    27 1   
    49    26    29 1   
    50    26    57 1   
    51    27    28 1   
    52    27    58 1   
    53    27    59 1   
    54    28    60 1   
    55    28    61 1   
    56    29    30 1   
    57    29    62 1   
    58    30    31 1   
    59    30    32 1   
    60    30    63 1   
    61    31    38 1   
    62    31    64 1   
    63    31    65 1   
    64    32    33 2   
    65    32    34 1   
    66    34    35 1   
    67    34    36 1   
    68    35    66 1   
    69    35    67 1   
    70    35    68 1   
    71    36    69 1   
    72    36    70 1   
    73    36    71 1   
    74    37    72 1   
    75    37    73 1   
    76    38    39 1   
    77    38    40 1   
    78    38    74 1   
    79    39    75 1   
    80    39    76 1   
    81    39    77 1   
    82    40    78 1   
    83    40    79 1   
    84    40    80 1   
@<TRIPOS>SUBSTRUCTURE
     1 OOV         1 TEMP              0 ****  ****    0 ROOT
