@<TRIPOS>MOLECULE
OP0
   39    39     1     0     0
SMALL
bcc


@<TRIPOS>ATOM
      1 C1           0.0000     0.0000     0.0000 c          1 OP0       0.608900
      2 O8           1.2130     0.0000     0.0000 o          1 OP0      -0.617100
      3 N14         -0.6730     0.0000     1.1670 n          1 OP0      -0.179800
      4 C2          -2.1380     0.1140     1.1860 c3         1 OP0      -0.008300
      5 C3          -2.6430     0.3790    -0.2100 c          1 OP0       0.571100
      6 N15         -3.7050    -0.3010    -0.6830 ns         1 OP0      -0.069400
      7 O9          -2.0910     1.2060    -0.9060 o          1 OP0      -0.594100
      8 C7           0.0420    -0.1190     2.4450 c3         1 OP0       0.054000
      9 C6          -0.3710     1.0450     3.3520 c3         1 OP0       0.097500
     10 C5          -1.8950     1.0670     3.4840 c3         1 OP0      -0.033400
     11 C4          -2.5310     1.2750     2.1040 c3         1 OP0      -0.029400
     12 N16          0.2350     0.8710     4.6790 n7         1 OP0      -0.292700
     13 S17          2.2370     1.3760     6.0940 s6         1 OP0       1.323300
     14 O10          1.5470     1.5150     4.7440 os         1 OP0      -0.380000
     15 O13          2.7550    -0.0530     6.1900 o          1 OP0      -0.670867
     16 O12          3.3830     2.2150     6.0460 o          1 OP0      -0.670867
     17 O11          1.2220     1.5020     7.0800 o          1 OP0      -0.670867
     18 N21         -4.6670    -0.8730    -4.7270 nz         1 OP0       0.085400
     19 C22         -5.7330    -0.4900    -3.7920 c3         1 OP0      -0.041200
     20 C23         -5.3090    -0.8420    -2.3640 c3         1 OP0       0.192400
     21 O24         -4.1780    -0.0510    -1.9940 os         1 OP0      -0.310900
     22 H1          -0.5410    -0.0530    -0.9370 h5         1 OP0      -0.021800
     23 H2          -2.5670    -0.8070     1.5640 h1         1 OP0       0.021700
     24 H3          -4.1470    -0.9980    -0.1160 hn         1 OP0       0.182500
     25 H4           1.1100    -0.0790     2.2670 h1         1 OP0       0.057200
     26 H5          -0.2180    -1.0580     2.9190 h1         1 OP0       0.057200
     27 H6          -0.0340     1.9770     2.9150 h1         1 OP0       0.036700
     28 H7          -2.1870     1.8780     4.1400 hc         1 OP0       0.026700
     29 H8          -2.2340     0.1240     3.8970 hc         1 OP0       0.026700
     30 H9          -2.1750     2.2060     1.6800 hc         1 OP0       0.023700
     31 H10         -3.6090     1.3060     2.2050 hc         1 OP0       0.023700
     32 H11         -0.3660     1.2660     5.3740 hn         1 OP0       0.267800
     33 H12         -3.9610    -0.1640    -4.7370 hn         1 OP0       0.228800
     34 H13         -4.2640    -1.7410    -4.4350 hn         1 OP0       0.228800
     35 H15         -6.6420    -1.0240    -4.0410 hx         1 OP0       0.091200
     36 H16         -5.9100     0.5760    -3.8630 hx         1 OP0       0.091200
     37 H17         -5.0470    -1.8920    -2.3140 h1         1 OP0       0.031700
     38 H18         -6.1280    -0.6420    -1.6840 h1         1 OP0       0.031700
     39 H213        -5.0510    -0.9760    -5.6460 hn         1 OP0       0.228800
@<TRIPOS>BOND
     1     1     2 2   
     2     1     3 1   
     3     1    22 1   
     4     3     4 1   
     5     3     8 1   
     6     4     5 1   
     7     4    11 1   
     8     4    23 1   
     9     5     6 1   
    10     5     7 2   
    11     6    21 1   
    12     6    24 1   
    13     8     9 1   
    14     8    25 1   
    15     8    26 1   
    16     9    10 1   
    17     9    12 1   
    18     9    27 1   
    19    10    11 1   
    20    10    28 1   
    21    10    29 1   
    22    11    30 1   
    23    11    31 1   
    24    12    14 1   
    25    12    32 1   
    26    13    14 1   
    27    13    15 1   
    28    13    16 1   
    29    13    17 1   
    30    18    19 1   
    31    18    33 1   
    32    18    34 1   
    33    18    39 1   
    34    19    20 1   
    35    19    35 1   
    36    19    36 1   
    37    20    21 1   
    38    20    37 1   
    39    20    38 1   
@<TRIPOS>SUBSTRUCTURE
     1 OP0         1 TEMP              0 ****  ****    0 ROOT
