@<TRIPOS>MOLECULE
molecule
   37    37     1     0     0
SMALL
bcc


@<TRIPOS>ATOM
      1 CA           1.4650     0.0000     0.0000 c3         1 OP1       0.047700
      2 C            1.9670     0.0000     1.4210 c          1 OP1       0.894600
      3 OXT          1.1820     0.0010     2.3390 o          1 OP1      -0.806300
      4 CB           1.9750     1.2490    -0.7210 c3         1 OP1      -0.078400
      5 CG           1.5700     1.1870    -2.1960 c3         1 OP1      -0.106400
      6 CD           2.0800     2.4360    -2.9170 c3         1 OP1       0.226800
      7 NE           1.6920     2.3770    -4.3280 nu         1 OP1      -0.829200
      8 CZ           2.0420     3.3970    -5.1810 c2         1 OP1       0.674100
      9 NH2          2.7200     4.4170    -4.7330 n2         1 OP1      -0.809100
     10 NH1          1.6790     3.3420    -6.5060 nz         1 OP1      -0.810600
     11 N            0.0000     0.0000     0.0000 n          1 OP1      -0.438800
     12 CAU         -0.8280    -1.0500    -0.6060 c3         1 OP1      -0.003300
     13 CAM         -2.2370    -0.4310    -0.7510 c3         1 OP1      -0.081400
     14 CAK         -2.2250     0.6440     0.3600 c3         1 OP1      -0.171400
     15 CAQ         -0.7590     0.9580     0.5590 c          1 OP1       0.715500
     16 OAM         -0.3300     1.9360     1.1340 o          1 OP1      -0.670500
     17 CAS         -0.8790    -2.2590     0.2930 c          1 OP1       0.866600
     18 OAH         -1.5860    -3.3390    -0.0730 o          1 OP1      -0.818300
     19 OAE         -0.2820    -2.2540     1.3440 o          1 OP1      -0.818300
     20 O            3.2870     0.0010     1.6660 o          1 OP1      -0.806300
     21 H1           1.8260    -0.8850    -0.5110 h1         1 OP1       0.058700
     22 H3           1.5420     2.1310    -0.2650 hc         1 OP1       0.068200
     23 H4           3.0540     1.2950    -0.6450 hc         1 OP1       0.068200
     24 H5           2.0030     0.3050    -2.6520 hc         1 OP1       0.047200
     25 H6           0.4910     1.1410    -2.2720 hc         1 OP1       0.047200
     26 H7           1.6480     3.3180    -2.4600 h1         1 OP1       0.071200
     27 H8           3.1590     2.4820    -2.8400 h1         1 OP1       0.071200
     28 H9           1.1830     1.5890    -4.6750 hn         1 OP1       0.449800
     29 H10          2.9750     5.1600    -5.3530 hn         1 OP1       0.412400
     30 H12          0.6900     3.2070    -6.5750 hn         1 OP1       0.443800
     31 H13          1.9310     4.1990    -6.9570 hn         1 OP1       0.443800
     32 H14         -0.4370    -1.3180    -1.5800 h1         1 OP1       0.019700
     33 H15         -3.0050    -1.1710    -0.5630 hc         1 OP1       0.033700
     34 H16         -2.3580     0.0250    -1.7270 hc         1 OP1       0.033700
     35 H17         -2.7590     1.5280     0.0350 hc         1 OP1       0.053700
     36 H18         -2.6530     0.2480     1.2720 hc         1 OP1       0.053700
     37 HH13         2.1520     2.5800    -6.9500 hn         1 OP1       0.443800
@<TRIPOS>BOND
     1    14    13 1
     2    14    15 1
     3    16    15 2
     4    13    12 1
     5    15    11 1
     6    18    17 1
     7    17    19 1
     8    17    12 1
     9    12    11 1
    10    11     1 1
    11     1     2 1
    12     1     4 1
    13    20     2 1
    14     2     3 1
    15     4     5 1
    16     5     6 1
    17     6     7 1
    18     7     8 1
    19     8     9 2
    20     8    10 1
    21     1    21 1
    22     4    22 1
    23     4    23 1
    24     5    24 1
    25     5    25 1
    26     6    26 1
    27     6    27 1
    28     7    28 1
    29     9    29 1
    30    10    30 1
    31    10    31 1
    32    12    32 1
    33    13    33 1
    34    13    34 1
    35    14    35 1
    36    14    36 1
    37    37    10 1
@<TRIPOS>SUBSTRUCTURE
     1 OP1         1 TEMP              0 ****  ****    0 ROOT
