@<TRIPOS>MOLECULE
OP1
   37    37     1     0     0
SMALL
bcc


@<TRIPOS>ATOM
      1 CA           1.4650     0.0000     0.0000 c3         1 OP1      -0.049300
      2 C            1.9670     0.0000     1.4210 c          1 OP1       0.975600
      3 OXT          1.1820     0.0010     2.3390 o          1 OP1      -0.853300
      4 CB           1.9750     1.2490    -0.7210 c3         1 OP1      -0.039400
      5 CG           1.5700     1.1870    -2.1960 c3         1 OP1      -0.046400
      6 CD           2.0800     2.4360    -2.9170 c3         1 OP1       0.147800
      7 NE           1.6920     2.3770    -4.3280 nu         1 OP1      -0.463200
      8 CZ           2.0420     3.3970    -5.1810 c2         1 OP1       0.249100
      9 NH2          2.7200     4.4170    -4.7330 n2         1 OP1      -0.696100
     10 NH1          1.6790     3.3420    -6.5060 nz         1 OP1       0.157400
     11 N            0.0000     0.0000     0.0000 n          1 OP1      -0.073800
     12 CAU         -0.8280    -1.0500    -0.6060 c3         1 OP1      -0.096300
     13 CAM         -2.2370    -0.4310    -0.7510 c3         1 OP1      -0.021400
     14 CAK         -2.2250     0.6440     0.3600 c3         1 OP1      -0.120400
     15 CAQ         -0.7590     0.9580     0.5590 c          1 OP1       0.637500
     16 OAM         -0.3300     1.9360     1.1340 o          1 OP1      -0.713500
     17 CAS         -0.8790    -2.2590     0.2930 c          1 OP1       0.946600
     18 OAH         -1.5860    -3.3390    -0.0730 o          1 OP1      -0.863800
     19 OAE         -0.2820    -2.2540     1.3440 o          1 OP1      -0.863800
     20 O            3.2870     0.0010     1.6660 o          1 OP1      -0.853300
     21 H1           1.8260    -0.8850    -0.5110 h1         1 OP1       0.035700
     22 H3           1.5420     2.1310    -0.2650 hc         1 OP1       0.044700
     23 H4           3.0540     1.2950    -0.6450 hc         1 OP1       0.044700
     24 H5           0.4910     1.1410    -2.2720 hc         1 OP1       0.023200
     25 H6           2.0030     0.3050    -2.6520 hc         1 OP1       0.023200
     26 H7           3.1590     2.4820    -2.8400 h1         1 OP1       0.033700
     27 H8           1.6480     3.3180    -2.4600 h1         1 OP1       0.033700
     28 H9           1.1810     1.5900    -4.6740 hn         1 OP1       0.303800
     29 H10          2.9850     4.4580    -3.7690 hn         1 OP1       0.393400
     30 H12          2.0060     4.1630    -6.9760 hn         1 OP1       0.212133
     31 H13          2.0840     2.5310    -6.9290 hn         1 OP1       0.212133
     32 H14         -0.4370    -1.3180    -1.5800 h1         1 OP1       0.000700
     33 H15         -2.3580     0.0250    -1.7270 hc         1 OP1       0.008700
     34 H16         -3.0050    -1.1710    -0.5630 hc         1 OP1       0.008700
     35 H17         -2.6530     0.2480     1.2720 hc         1 OP1       0.024700
     36 H18         -2.7590     1.5280     0.0350 hc         1 OP1       0.024700
     37 HH13         0.6810     3.3070    -6.5770 hn         1 OP1       0.212133
@<TRIPOS>BOND
     1     1     2 1   
     2     1     4 1   
     3     1    11 1   
     4     1    21 1   
     5     2     3 1   
     6     2    20 1   
     7     4     5 1   
     8     4    22 1   
     9     4    23 1   
    10     5     6 1   
    11     5    24 1   
    12     5    25 1   
    13     6     7 1   
    14     6    26 1   
    15     6    27 1   
    16     7     8 1   
    17     7    28 1   
    18     8     9 2   
    19     8    10 1   
    20     9    29 1   
    21    10    30 1   
    22    10    31 1   
    23    10    37 1   
    24    11    12 1   
    25    11    15 1   
    26    12    13 1   
    27    12    17 1   
    28    12    32 1   
    29    13    14 1   
    30    13    33 1   
    31    13    34 1   
    32    14    15 1   
    33    14    35 1   
    34    14    36 1   
    35    15    16 2   
    36    17    18 1   
    37    17    19 1   
@<TRIPOS>SUBSTRUCTURE
     1 OP1         1 TEMP              0 ****  ****    0 ROOT
