@<TRIPOS>MOLECULE
molecule
   43    42     1     0     0
SMALL
bcc


@<TRIPOS>ATOM
      1 O6           0.0000     0.0000     0.0000 o          1 OP2      -0.838300
      2 C12          1.3430     0.0000     0.0000 c          1 OP2       0.896600
      3 C11          2.0970     0.0000     1.3040 c3         1 OP2       0.025400
      4 O5           3.5020     0.0000     1.0430 os         1 OP2      -0.388600
      5 C10          4.3120     0.0010     2.2200 c3         1 OP2       0.136400
      6 C9           5.7900     0.0010     1.8210 c3         1 OP2       0.142400
      7 O4           6.1020     1.2210     1.1480 os         1 OP2      -0.393600
      8 C8           7.4640     1.3230     0.7310 c3         1 OP2       0.143400
      9 C7           7.6830     2.6620     0.0240 c3         1 OP2       0.140400
     10 O3           7.4920     3.7290     0.9560 os         1 OP2      -0.407600
     11 C6           7.6740     5.0310     0.3940 c3         1 OP2       0.143400
     12 C5           7.4450     6.0890     1.4750 c3         1 OP2       0.140400
     13 O2           8.4520     5.9670     2.4810 os         1 OP2      -0.410600
     14 C4           8.3300     6.9140     3.5430 c3         1 OP2       0.143400
     15 C3           9.4560     6.6920     4.5570 c3         1 OP2       0.140400
     16 O1          10.7130     6.9750     3.9410 os         1 OP2      -0.406600
     17 C2          11.8360     6.7970     4.8070 c3         1 OP2       0.142400
     18 C1          13.1230     7.1250     4.0470 c3         1 OP2       0.143400
     19 OBC          1.9470    -0.0000    -1.0470 o          1 OP2      -0.838300
     20 OXT         13.1300     8.5110     3.6980 oh         1 OP2      -0.600800
     21 H111         1.8350     0.8840     1.8730 h1         1 OP2       0.008700
     22 H112         1.8350    -0.8850     1.8720 h1         1 OP2       0.008700
     23 H101         4.0970     0.8860     2.8060 h1         1 OP2       0.015200
     24 H102         4.0970    -0.8830     2.8070 h1         1 OP2       0.015200
     25 H91C         6.4030    -0.0880     2.7100 h1         1 OP2       0.017200
     26 H92C         5.9860    -0.8360     1.1620 h1         1 OP2       0.017200
     27 H81C         7.6940     0.5130     0.0490 h1         1 OP2       0.023200
     28 H82C         8.1120     1.2610     1.5960 h1         1 OP2       0.023200
     29 H71C         6.9750     2.7620    -0.7890 h1         1 OP2       0.031200
     30 H72C         8.6920     2.7020    -0.3680 h1         1 OP2       0.031200
     31 H61C         8.6820     5.1200     0.0080 h1         1 OP2       0.030200
     32 H62C         6.9650     5.1790    -0.4120 h1         1 OP2       0.030200
     33 H51C         7.4960     7.0750     1.0310 h1         1 OP2       0.032200
     34 H52C         6.4690     5.9430     1.9210 h1         1 OP2       0.032200
     35 H41C         7.3720     6.7870     4.0330 h1         1 OP2       0.031200
     36 H42C         8.3990     7.9180     3.1420 h1         1 OP2       0.031200
     37 H31C         9.4410     5.6620     4.8930 h1         1 OP2       0.030700
     38 H32C         9.3130     7.3510     5.4050 h1         1 OP2       0.030700
     39 H21C        11.8700     5.7690     5.1480 h1         1 OP2       0.029200
     40 H22C        11.7420     7.4580     5.6610 h1         1 OP2       0.029200
     41 H11C        13.1740     6.5250     3.1470 h1         1 OP2       0.027700
     42 H12C        13.9790     6.9070     4.6750 h1         1 OP2       0.027700
     43 HXT         13.9490     8.7270     3.2850 ho         1 OP2       0.396000
@<TRIPOS>BOND
     1     1     2 1
     2     2     3 1
     3     2    19 1
     4     3     4 1
     5     4     5 1
     6     5     6 1
     7     6     7 1
     8     7     8 1
     9     8     9 1
    10     9    10 1
    11    10    11 1
    12    11    12 1
    13    12    13 1
    14    13    14 1
    15    14    15 1
    16    15    16 1
    17    16    17 1
    18    17    18 1
    19    18    20 1
    20     3    21 1
    21     3    22 1
    22     5    23 1
    23     5    24 1
    24     6    25 1
    25     6    26 1
    26     8    27 1
    27     8    28 1
    28     9    29 1
    29     9    30 1
    30    11    31 1
    31    11    32 1
    32    12    33 1
    33    12    34 1
    34    14    35 1
    35    14    36 1
    36    15    37 1
    37    15    38 1
    38    17    39 1
    39    17    40 1
    40    18    41 1
    41    18    42 1
    42    20    43 1
@<TRIPOS>SUBSTRUCTURE
     1 OP2         1 TEMP              0 ****  ****    0 ROOT
