@<TRIPOS>MOLECULE
OP2
   43    42     1     0     0
SMALL
bcc


@<TRIPOS>ATOM
      1 O6          5.4870    4.5660    2.3480 o         1 OP2     -0.850300
      2 C12         5.7300    3.6670    3.2040 c         1 OP2      0.882600
      3 C11         4.6630    2.5980    3.4770 c3        1 OP2      0.024400
      4 O5          4.8940    1.3890    2.7560 os        1 OP2     -0.441600
      5 C10         6.1050    0.7320    3.1180 c3        1 OP2      0.083400
      6 C9          6.3810   -0.3100    2.0410 c3        1 OP2      0.128400
      7 O4          7.3860    0.0900    1.1200 os        1 OP2     -0.435600
      8 C8          7.0770    1.2680    0.3770 c3        1 OP2      0.093400
      9 C7          8.0020    2.4020    0.8190 c3        1 OP2      0.083400
     10 O3          8.5730    3.0740   -0.2970 os        1 OP2     -0.421600
     11 C6          7.6720    3.8650   -1.0560 c3        1 OP2      0.122400
     12 C5          7.2060    5.1360   -0.3560 c3        1 OP2      0.068400
     13 O2          8.3150    6.0250   -0.2360 os        1 OP2     -0.432600
     14 C4          8.4370    6.6340    1.0430 c3        1 OP2      0.136400
     15 C3          8.6760    5.6010    2.1370 c3        1 OP2      0.064400
     16 O1          9.4070    6.2600    3.1740 os        1 OP2     -0.457600
     17 C2          9.3890    5.5090    4.3880 c3        1 OP2      0.079400
     18 C1          9.9230    6.4390    5.4690 c3        1 OP2      0.133400
     19 OBC         6.8250    3.6130    3.8410 o         1 OP2     -0.850300
     20 OXT         9.1180    7.5880    5.6510 oh        1 OP2     -0.619800
     21 H111        4.6130    2.3750    4.5740 h1        1 OP2      0.032700
     22 H112        3.6630    2.9370    3.0980 h1        1 OP2      0.032700
     23 H101        5.9560    0.2330    4.1130 h1        1 OP2      0.055700
     24 H102        6.9510    1.4700    3.1940 h1        1 OP2      0.055700
     25 H91C        6.8100   -1.2400    2.5030 h1        1 OP2      0.039700
     26 H92C        5.4370   -0.5590    1.4860 h1        1 OP2      0.039700
     27 H81C        7.2750    0.9990   -0.6960 h1        1 OP2      0.050700
     28 H82C        6.0030    1.5620    0.5060 h1        1 OP2      0.050700
     29 H71C        7.4610    3.1210    1.4940 h1        1 OP2      0.083200
     30 H72C        8.8960    1.9860    1.3590 h1        1 OP2      0.083200
     31 H61C        6.7700    3.2610   -1.3410 h1        1 OP2      0.036200
     32 H62C        8.2690    4.1260   -1.9720 h1        1 OP2      0.036200
     33 H51C        6.4540    5.6530   -1.0130 h1        1 OP2      0.072700
     34 H52C        6.7280    4.9080    0.6360 h1        1 OP2      0.072700
     35 H41C        9.3220    7.3160    0.9320 h1        1 OP2      0.041200
     36 H42C        7.5180    7.2350    1.2690 h1        1 OP2      0.041200
     37 H31C        9.2910    4.7490    1.7400 h1        1 OP2      0.083700
     38 H32C        7.6990    5.1970    2.5400 h1        1 OP2      0.083700
     39 H21C        8.3440    5.1570    4.6160 h1        1 OP2      0.068200
     40 H22C       10.0610    4.6180    4.2770 h1        1 OP2      0.068200
     41 H11C        9.9230    5.9140    6.4600 h1        1 OP2      0.031200
     42 H12C       10.9670    6.7690    5.2160 h1        1 OP2      0.031200
     43 HXT         8.7850    7.8400    4.7790 ho        1 OP2      0.419000
@<TRIPOS>BOND
     1    1    2 1   
     2    2    3 1   
     3    2   19 1   
     4    3    4 1   
     5    3   21 1   
     6    3   22 1   
     7    4    5 1   
     8    5    6 1   
     9    5   23 1   
    10    5   24 1   
    11    6    7 1   
    12    6   25 1   
    13    6   26 1   
    14    7    8 1   
    15    8    9 1   
    16    8   27 1   
    17    8   28 1   
    18    9   10 1   
    19    9   29 1   
    20    9   30 1   
    21   10   11 1   
    22   11   12 1   
    23   11   31 1   
    24   11   32 1   
    25   12   13 1   
    26   12   33 1   
    27   12   34 1   
    28   13   14 1   
    29   14   15 1   
    30   14   35 1   
    31   14   36 1   
    32   15   16 1   
    33   15   37 1   
    34   15   38 1   
    35   16   17 1   
    36   17   18 1   
    37   17   39 1   
    38   17   40 1   
    39   18   20 1   
    40   18   41 1   
    41   18   42 1   
    42   20   43 1   
@<TRIPOS>SUBSTRUCTURE
     1 OP2         1 TEMP              0 ****  ****    0 ROOT
