@<TRIPOS>MOLECULE
molecule
   25    26     1     0     0
SMALL
bcc


@<TRIPOS>ATOM
      1 O1           0.0000     0.0000     0.0000 os         1 OPA      -0.433600
      2 C2           1.4320     0.0000     0.0000 c3         1 OPA       0.237700
      3 C3           1.9080     0.0000     1.4180 cc         1 OPA      -0.212400
      4 C4           1.1680     0.3430     2.4980 cd         1 OPA      -0.031300
      5 C5          -0.2780     0.7800     2.2860 c3         1 OPA      -0.045100
      6 C6          -0.4390     1.1000     0.7950 c3         1 OPA       0.121400
      7 S13          3.4900    -0.4290     2.0770 ss         1 OPA      -0.128800
      8 C14          3.1740    -0.1610     3.7590 cc         1 OPA       0.155500
      9 C15          1.8460     0.2520     3.7730 cd         1 OPA      -0.223600
     10 C16          1.1630     0.5840     5.0250 c          1 OPA       0.902200
     11 O17          1.1950     1.8470     5.4960 o          1 OPA      -0.849800
     12 O18          0.5650    -0.2790     5.6400 o          1 OPA      -0.849800
     13 N19          4.0340    -0.3230     4.8300 ns         1 OPA      -0.405100
     14 C20          5.2980    -0.7400     4.6240 c          1 OPA       0.550100
     15 C21          6.2260    -0.9160     5.7800 c          1 OPA       0.837600
     16 O22          7.4880    -1.3330     5.5730 o          1 OPA      -0.817800
     17 O23          5.8420    -0.6820     6.9050 o          1 OPA      -0.817800
     18 O24          5.6820    -0.9750     3.4960 o          1 OPA      -0.623100
     19 H21          1.7730    -0.9130    -0.4730 h1         1 OPA       0.035700
     20 H22A         1.7730     0.9130    -0.4730 h1         1 OPA       0.035700
     21 H51         -0.4860     1.6640     2.8770 hc         1 OPA       0.065200
     22 H52         -0.9500    -0.0230     2.5640 hc         1 OPA       0.065200
     23 H61         -1.4940     1.2550     0.5990 h1         1 OPA       0.031700
     24 H62          0.1910     1.9510     0.5660 h1         1 OPA       0.031700
     25 H19          3.7160    -0.1290     5.7600 hn         1 OPA       0.369500
@<TRIPOS>BOND
     1     1     2 1
     2     1     6 1
     3     2     3 1
     4     2    19 1
     5     2    20 1
     6     3     4 2
     7     3     7 1
     8     4     5 1
     9     4     9 1
    10     5     6 1
    11     5    21 1
    12     5    22 1
    13     6    23 1
    14     6    24 1
    15     7     8 1
    16     8     9 2
    17     8    13 1
    18     9    10 1
    19    10    11 1
    20    10    12 1
    21    13    14 1
    22    13    25 1
    23    14    15 1
    24    14    18 2
    25    15    16 1
    26    15    17 1
@<TRIPOS>SUBSTRUCTURE
     1 OPA         1 TEMP              0 ****  ****    0 ROOT
