@<TRIPOS>MOLECULE
OPA
   25    26     1     0     0
SMALL
bcc


@<TRIPOS>ATOM
      1 O1           0.0000     0.0000     0.0000 os         1 OPA      -0.427600
      2 C2           1.4320     0.0000     0.0000 c3         1 OPA       0.339700
      3 C3           1.9080     0.0000     1.4180 cc         1 OPA      -0.186400
      4 C4           1.1680     0.3430     2.4980 cd         1 OPA      -0.014300
      5 C5          -0.2780     0.7800     2.2860 c3         1 OPA       0.007900
      6 C6          -0.4390     1.1000     0.7950 c3         1 OPA       0.193400
      7 S13          3.4900    -0.4290     2.0770 ss         1 OPA      -0.273800
      8 C14          3.1740    -0.1610     3.7590 cc         1 OPA       0.075500
      9 C15          1.8460     0.2520     3.7730 cd         1 OPA      -0.223600
     10 C16          1.1630     0.5840     5.0250 c          1 OPA       0.996200
     11 O17          1.1950     1.8470     5.4960 o          1 OPA      -0.897300
     12 O18          0.5650    -0.2790     5.6400 o          1 OPA      -0.897300
     13 N19          4.0340    -0.3230     4.8300 ns         1 OPA       0.055900
     14 C20          5.2980    -0.7400     4.6240 c          1 OPA       0.438100
     15 C21          6.2260    -0.9160     5.7800 c          1 OPA       0.925600
     16 O22          7.4880    -1.3330     5.5730 o          1 OPA      -0.873300
     17 O23          5.8420    -0.6820     6.9050 o          1 OPA      -0.873300
     18 O24          5.6820    -0.9750     3.4960 o          1 OPA      -0.638100
     19 H21          1.7730    -0.9130    -0.4730 h1         1 OPA      -0.002300
     20 H22A         1.7730     0.9130    -0.4730 h1         1 OPA      -0.002300
     21 H51         -0.4860     1.6640     2.8770 hc         1 OPA       0.036200
     22 H52         -0.9500    -0.0230     2.5640 hc         1 OPA       0.036200
     23 H61         -1.4940     1.2550     0.5990 h1         1 OPA      -0.002800
     24 H62          0.1910     1.9510     0.5660 h1         1 OPA      -0.002800
     25 H19          3.7160    -0.1290     5.7600 hn         1 OPA       0.211500
@<TRIPOS>BOND
     1     1     2 1   
     2     1     6 1   
     3     2     3 1   
     4     2    19 1   
     5     2    20 1   
     6     3     4 2   
     7     3     7 1   
     8     4     5 1   
     9     4     9 1   
    10     5     6 1   
    11     5    21 1   
    12     5    22 1   
    13     6    23 1   
    14     6    24 1   
    15     7     8 1   
    16     8     9 2   
    17     8    13 1   
    18     9    10 1   
    19    10    11 1   
    20    10    12 1   
    21    13    14 1   
    22    13    25 1   
    23    14    15 1   
    24    14    18 2   
    25    15    16 1   
    26    15    17 1   
@<TRIPOS>SUBSTRUCTURE
     1 OPA         1 TEMP              0 ****  ****    0 ROOT
