@<TRIPOS>MOLECULE
molecule
   44    46     1     0     0
SMALL
bcc


@<TRIPOS>ATOM
      1 C16          0.0000     0.0000     0.0000 ca         1 OPB      -0.117500
      2 C17          1.3810     0.0000     0.0000 ca         1 OPB      -0.124000
      3 C12          2.0740     0.0000     1.2040 ca         1 OPB       0.047600
      4 C13          1.3760    -0.0050     2.4030 ca         1 OPB      -0.124000
      5 C14         -0.0050     0.0010     2.3960 ca         1 OPB      -0.117500
      6 C15         -0.6920     0.0010     1.1970 ca         1 OPB      -0.127000
      7 C8           2.2360     3.6930     3.1870 ca         1 OPB      -0.143000
      8 C9           2.7050     3.8070     4.4870 ca         1 OPB       0.107100
      9 C10          3.6900     2.9440     4.9470 ca         1 OPB      -0.143000
     10 C11          4.2020     1.9720     4.1110 ca         1 OPB      -0.110000
     11 C6           3.7320     1.8580     2.8100 ca         1 OPB       0.039600
     12 C7           2.7510     2.7260     2.3480 ca         1 OPB      -0.110000
     13 C21          7.1200    -5.2170     0.0860 c3         1 OPB      -0.090100
     14 C20          7.1160    -4.0480     1.0740 c3         1 OPB      -0.082400
     15 C18          6.3920    -1.6820     1.4200 c3         1 OPB      -0.056400
     16 N2           3.4730     0.0010     1.2070 n          1 OPB      -0.250600
     17 C3           4.2310    -0.8420     0.4810 c          1 OPB       0.717500
     18 C4           5.6720    -0.4900     0.7860 c3         1 OPB      -0.246700
     19 C5           5.5670     0.6530     1.7740 c          1 OPB       0.715500
     20 N1           4.2520     0.8730     1.9610 n          1 OPB      -0.250600
     21 O3           3.8370    -1.7110    -0.2680 o          1 OPB      -0.587500
     22 O5           6.4850     1.2520     2.2940 o          1 OPB      -0.583500
     23 O9           2.2000     4.7630     5.3110 oh         1 OPB      -0.519100
     24 H16         -0.5410    -0.0000    -0.9380 ha         1 OPB       0.137000
     25 H17          1.9230     0.0020    -0.9380 ha         1 OPB       0.146500
     26 H13          1.9130    -0.0050     3.3440 ha         1 OPB       0.146500
     27 H14         -0.5510    -0.0010     3.3320 ha         1 OPB       0.137000
     28 H15         -1.7760     0.0030     1.1940 ha         1 OPB       0.134000
     29 H8           1.4690     4.3690     2.8270 ha         1 OPB       0.148000
     30 H10          4.0560     3.0330     5.9620 ha         1 OPB       0.148000
     31 H11          4.9690     1.2970     4.4710 ha         1 OPB       0.150500
     32 H7           2.3840     2.6380     1.3330 ha         1 OPB       0.150500
     33 H211         7.6270    -6.0640     0.5330 hc         1 OPB       0.034367
     34 H212         6.1000    -5.4910    -0.1530 hc         1 OPB       0.034367
     35 H213         7.6370    -4.9230    -0.8190 hc         1 OPB       0.034367
     36 H201         8.1370    -3.7700     1.3090 hc         1 OPB       0.039700
     37 H202         6.5980    -4.3230     1.9840 hc         1 OPB       0.039700
     38 H191         5.3760    -3.1340     0.2040 hc         1 OPB       0.059200
     39 H192         6.9100    -2.5660    -0.4700 hc         1 OPB       0.059200
     40 H181         5.8780    -1.9720     2.3290 hc         1 OPB       0.057700
     41 H182         7.4120    -1.4030     1.6550 hc         1 OPB       0.057700
     42 H4           6.1800    -0.1670    -0.1140 hc         1 OPB       0.115700
     43 H9           1.4560     4.4170     5.7760 ho         1 OPB       0.420000
     44 C19          6.3960    -2.8560     0.4390 c3         1 OPB      -0.094400
@<TRIPOS>BOND
     1     1     2 ar
     2     1     6 ar
     3     1    24 1
     4     2     3 ar
     5     2    25 1
     6     3     4 ar
     7     3    16 1
     8     4     5 ar
     9     4    26 1
    10     5     6 ar
    11     5    27 1
    12     6    28 1
    13     7     8 ar
    14     7    12 ar
    15     7    29 1
    16     8     9 ar
    17     8    23 1
    18     9    10 ar
    19     9    30 1
    20    10    11 ar
    21    10    31 1
    22    11    12 ar
    23    11    20 1
    24    12    32 1
    25    13    14 1
    26    13    33 1
    27    13    34 1
    28    13    35 1
    29    14    44 1
    30    14    36 1
    31    14    37 1
    32    44    15 1
    33    44    38 1
    34    44    39 1
    35    15    18 1
    36    15    40 1
    37    15    41 1
    38    16    17 1
    39    16    20 1
    40    17    18 1
    41    17    21 2
    42    18    19 1
    43    18    42 1
    44    19    20 1
    45    19    22 2
    46    23    43 1
@<TRIPOS>SUBSTRUCTURE
     1 OPB         1 TEMP              0 ****  ****    0 ROOT
