@<TRIPOS>MOLECULE
OPC
  141   142     1     0     0
SMALL
bcc


@<TRIPOS>ATOM
      1 CBF          0.0000     0.0000     0.0000 c3         1 OPC      -0.112000
      2 CBE          1.5300     0.0000     0.0000 c3         1 OPC      -0.107000
      3 CBD          2.0400     0.0000     1.4430 c3         1 OPC      -0.109000
      4 CBC          3.5700     0.0010     1.4440 c3         1 OPC      -0.108000
      5 CBB          4.0790     0.0000     2.8870 c3         1 OPC      -0.108000
      6 CBA          5.6090     0.0000     2.8870 c3         1 OPC      -0.107000
      7 CAZ          6.1180     0.0000     4.3290 c3         1 OPC      -0.111000
      8 CAY          7.6480     0.0000     4.3310 c3         1 OPC      -0.138000
      9 CAX          8.1580     0.0010     5.7730 DU         1 OPC       0.014000
     10 CAW          9.6650     0.0010     5.7740 c2         1 OPC      -0.128000
     11 CAV         10.3190     0.9300     6.4250 c2         1 OPC      -0.137000
     12 CAU         11.8260     0.9300     6.4260 DU         1 OPC       0.018000
     13 CAT         12.3360     2.2860     5.9330 c3         1 OPC      -0.138000
     14 CAS         13.8660     2.2870     5.9330 c3         1 OPC      -0.110000
     15 CAR         14.3760     3.6410     5.4400 c3         1 OPC      -0.107000
     16 CAQ         15.9060     3.6420     5.4410 c3         1 OPC      -0.102000
     17 CAP         16.4160     4.9980     4.9480 c3         1 OPC      -0.096000
     18 CAO         17.9230     4.9980     4.9490 c2         1 OPC       0.377000
     19 OAD         18.5270     4.0140     5.3070 o          1 OPC      -0.388000
     20 OAN         18.5940     6.0900     4.5510 os         1 OPC      -0.253000
     21 CAM         20.0460     6.0910     4.5530 c3         1 OPC       0.093000
     22 CAL         20.5570     4.9860     3.6250 c3         1 OPC       0.046000
     23 OAK         20.1790     5.2820     2.2790 os         1 OPC      -0.626000
     24 PAJ         20.7460     4.0840     1.3630 p5         1 OPC       1.364000
     25 OBH         20.0050     2.7110     1.7570 o          1 OPC      -0.657000
     26 OAB         22.2030     3.9400     1.5850 o          1 OPC      -0.657000
     27 OAI         20.4700     4.4180    -0.1880 os         1 OPC      -0.651000
     28 CAH         21.0960     3.3850    -0.9500 c3         1 OPC       0.079000
     29 CAG         20.8710     3.6430    -2.4410 c3         1 OPC      -0.271000
     30 NAF         21.6100     4.8450    -2.8480 n4         1 OPC       0.693000
     31 CAE         23.0470     4.6340    -2.6230 c3         1 OPC      -0.265000
     32 CBG         21.3710     5.1100    -4.2730 c3         1 OPC      -0.265000
     33 CAA         21.1550     5.9930    -2.0530 c3         1 OPC      -0.265000
     34 CAC         20.5560     5.8400     5.9720 c3         1 OPC      -0.163000
     35 CBI         20.5560     7.4470     4.0590 c3         1 OPC       0.088000
     36 OBJ         22.0090     7.4460     4.0600 os         1 OPC      -0.244000
     37 CBK         22.6800     8.5390     3.6620 c2         1 OPC       0.373000
     38 OCC         22.0750     9.5230     3.3050 o          1 OPC      -0.417000
     39 CBL         24.1870     8.5390     3.6630 c3         1 OPC      -0.098000
     40 CBM         24.6970     9.8940     3.1710 c3         1 OPC      -0.099000
     41 CBN         26.2260     9.8950     3.1710 c3         1 OPC      -0.109000
     42 CBO         26.7360    11.2510     2.6780 c3         1 OPC      -0.106000
     43 CBP         28.2660    11.2510     2.6780 c3         1 OPC      -0.102000
     44 CBQ         28.7760    12.6060     2.1860 c3         1 OPC      -0.088000
     45 CBR         30.2830    12.6060     2.1860 c2         1 OPC      -0.151000
     46 CBS         30.9390    12.9300     1.0990 c2         1 OPC      -0.156000
     47 CBT         30.1990    13.4870    -0.0890 c3         1 OPC      -0.087000
     48 CBU         30.8520    14.8000    -0.5280 c3         1 OPC      -0.103000
     49 CBV         30.1000    15.3650    -1.7340 c3         1 OPC      -0.108000
     50 CBW         30.7540    16.6770    -2.1730 c3         1 OPC      -0.108000
     51 CBX         30.0030    17.2420    -3.3800 c3         1 OPC      -0.108000
     52 CBY         30.6560    18.5540    -3.8190 c3         1 OPC      -0.108000
     53 CBZ         29.9040    19.1190    -5.0260 c3         1 OPC      -0.108000
     54 CCA         30.5580    20.4310    -5.4650 c3         1 OPC      -0.107000
     55 CCB         29.8060    20.9980    -6.6710 c3         1 OPC      -0.111000
     56 HBF1        -0.3610    -0.8880     0.5040 hc         1 OPC       0.039333
     57 HBF2        -0.3610     0.0070    -1.0210 hc         1 OPC       0.039333
     58 HBF3        -0.3610     0.8810     0.5170 hc         1 OPC       0.039333
     59 HBE1         1.8910    -0.8850    -0.5110 hc         1 OPC       0.051000
     60 HBE2         1.8910     0.8850    -0.5110 hc         1 OPC       0.051000
     61 HBD1         1.6790    -0.8850     1.9540 hc         1 OPC       0.054000
     62 HBD2         1.6780     0.8840     1.9540 hc         1 OPC       0.054000
     63 HBC1         3.9320    -0.8830     0.9330 hc         1 OPC       0.054000
     64 HBC2         3.9310     0.8860     0.9340 hc         1 OPC       0.054000
     65 HBB1         3.7180    -0.8850     3.3970 hc         1 OPC       0.053500
     66 HBB2         3.7180     0.8850     3.3980 hc         1 OPC       0.053500
     67 HBA1         5.9700    -0.8840     2.3760 hc         1 OPC       0.054500
     68 HBA2         5.9700     0.8850     2.3770 hc         1 OPC       0.054500
     69 HAZ1         5.7570    -0.8850     4.8400 hc         1 OPC       0.051500
     70 HAZ2         5.7560     0.8840     4.8400 hc         1 OPC       0.051500
     71 HAY1         8.0090     0.8850     3.8200 hc         1 OPC       0.063500
     72 HAY2         8.0100    -0.8840     3.8200 hc         1 OPC       0.063500
     73 HAX1         7.7960    -0.8830     6.2840 ha         1 OPC       0.054000
     74 HAX2         7.7960     0.8850     6.2830 ha         1 OPC       0.054000
     75 HAW          9.0530    -0.3500     6.5960 DU         1 OPC       0.020000
     76 HAV         10.9310     0.2780     7.0360 DU         1 OPC       0.025000
     77 HAU1        12.1880     0.1480     5.7690 ha         1 OPC       0.056500
     78 HAU2        12.1870     0.7530     7.4310 ha         1 OPC       0.056500
     79 HAT1        11.9750     3.0680     6.5890 hc         1 OPC       0.061500
     80 HAT2        11.9760     2.4630     4.9270 hc         1 OPC       0.061500
     81 HAS1        14.2280     1.5040     5.2770 hc         1 OPC       0.055500
     82 HAS2        14.2270     2.1090     6.9390 hc         1 OPC       0.055500
     83 HAR1        14.0150     4.4240     6.0960 hc         1 OPC       0.050500
     84 HAR2        14.0160     3.8180     4.4340 hc         1 OPC       0.050500
     85 HAQ1        16.2680     2.8600     4.7840 hc         1 OPC       0.072500
     86 HAQ2        16.2670     3.4650     6.4460 hc         1 OPC       0.072500
     87 HAP1        16.0550     5.1750     3.9420 hc         1 OPC       0.070000
     88 HAP2        16.0540     5.7800     5.6040 hc         1 OPC       0.070000
     89 HAL1        20.1250     4.0380     3.9220 h1         1 OPC       0.087000
     90 HAL2        21.6370     4.9280     3.6930 h1         1 OPC       0.087000
     91 HAH1        20.6670     2.4270    -0.6810 h1         1 OPC       0.085500
     92 HAH2        22.1590     3.3750    -0.7420 h1         1 OPC       0.085500
     93 HAG1        21.2230     2.7920    -3.0120 hx         1 OPC       0.105000
     94 HAG2        19.8140     3.7890    -2.6270 hx         1 OPC       0.105000
     95 HAE1        23.3130     3.6230    -2.9060 hx         1 OPC       0.109667
     96 HAE2        23.2750     4.7880    -1.5750 hx         1 OPC       0.109667
     97 HAE3        23.6130     5.3370    -3.2230 hx         1 OPC       0.109667
     98 HBG1        21.6990     4.2590    -4.8580 hx         1 OPC       0.109667
     99 HBG2        20.3130     5.2740    -4.4370 hx         1 OPC       0.109667
    100 HBG3        21.9250     5.9910    -4.5740 hx         1 OPC       0.109667
    101 HAA1        21.6870     6.0140    -1.1100 hx         1 OPC       0.109667
    102 HAA2        21.3490     6.9090    -2.5980 hx         1 OPC       0.109667
    103 HAA3        20.0910     5.9040    -1.8660 hx         1 OPC       0.109667
    104 HAC1        20.4150     4.7970     6.2280 hc         1 OPC       0.061667
    105 HAC2        21.6100     6.0860     6.0270 hc         1 OPC       0.061667
    106 HAC3        20.0040     6.4600     6.6690 hc         1 OPC       0.061667
    107 HBI1        20.1950     7.6240     3.0530 h1         1 OPC       0.057000
    108 HBI2        20.1940     8.2290     4.7150 h1         1 OPC       0.057000
    109 HBL1        24.5480     7.7570     3.0070 hc         1 OPC       0.077500
    110 HBL2        24.5470     8.3610     4.6690 hc         1 OPC       0.077500
    111 HBM1        24.3360    10.0720     2.1650 hc         1 OPC       0.065500
    112 HBM2        24.3350    10.6770     3.8270 hc         1 OPC       0.065500
    113 HBN1        26.5870     9.7180     4.1770 hc         1 OPC       0.053500
    114 HBN2        26.5880     9.1130     2.5140 hc         1 OPC       0.053500
    115 HBO1        26.3750    11.4280     1.6730 hc         1 OPC       0.054500
    116 HBO2        26.3750    12.0330     3.3350 hc         1 OPC       0.054500
    117 HBP1        28.6270    11.0730     3.6840 hc         1 OPC       0.054500
    118 HBP2        28.6270    10.4690     2.0210 hc         1 OPC       0.054500
    119 HBQ1        28.4150    13.3890     2.8420 hc         1 OPC       0.066000
    120 HBQ2        28.4160    12.7840     1.1800 hc         1 OPC       0.066000
    121 HBR         30.8190    12.2070     3.0390 ha         1 OPC       0.103000
    122 HBS         32.0220    12.9280     1.1030 ha         1 OPC       0.102000
    123 HBT1        30.2370    12.7740    -0.9040 hc         1 OPC       0.065000
    124 HBT2        29.1670    13.6700     0.1820 hc         1 OPC       0.065000
    125 HBU1        30.8140    15.5120     0.2870 hc         1 OPC       0.055500
    126 HBU2        31.8850    14.6170    -0.8000 hc         1 OPC       0.055500
    127 HBV1        29.0680    15.5490    -1.4630 hc         1 OPC       0.052500
    128 HBV2        30.1380    14.6520    -2.5500 hc         1 OPC       0.052500
    129 HBW1        30.7160    17.3890    -1.3580 hc         1 OPC       0.054500
    130 HBW2        31.7870    16.4920    -2.4440 hc         1 OPC       0.054500
    131 HBX1        28.9700    17.4260    -3.1090 hc         1 OPC       0.053500
    132 HBX2        30.0400    16.5300    -4.1950 hc         1 OPC       0.053500
    133 HBY1        31.6890    18.3700    -4.0910 hc         1 OPC       0.054500
    134 HBY2        30.6190    19.2670    -3.0040 hc         1 OPC       0.054500
    135 HBZ1        28.8720    19.3040    -4.7540 hc         1 OPC       0.053500
    136 HBZ2        29.9420    18.4070    -5.8410 hc         1 OPC       0.053500
    137 HCA1        30.5210    21.1440    -4.6490 hc         1 OPC       0.051500
    138 HCA2        31.5900    20.2470    -5.7370 hc         1 OPC       0.051500
    139 HCB1        30.2730    21.9240    -6.9850 hc         1 OPC       0.039333
    140 HCB2        29.8380    20.2830    -7.4850 hc         1 OPC       0.039333
    141 HCB3        28.7760    21.1880    -6.3980 hc         1 OPC       0.039333
@<TRIPOS>BOND
     1     1     2 1   
     2     1    56 1   
     3     1    57 1   
     4     1    58 1   
     5     2     3 1   
     6     2    59 1   
     7     2    60 1   
     8     3     4 1   
     9     3    61 1   
    10     3    62 1   
    11     4     5 1   
    12     4    63 1   
    13     4    64 1   
    14     5     6 1   
    15     5    65 1   
    16     5    66 1   
    17     6     7 1   
    18     6    67 1   
    19     6    68 1   
    20     7     8 1   
    21     7    69 1   
    22     7    70 1   
    23     8     9 1   
    24     8    71 1   
    25     8    72 1   
    26     9    10 1   
    27     9    73 1   
    28     9    74 1   
    29     9    75 1   
    30    10    11 1   
    31    10    75 1   
    32    11    12 1   
    33    11    76 1   
    34    12    13 1   
    35    12    76 1   
    36    12    77 1   
    37    12    78 1   
    38    13    14 1   
    39    13    79 1   
    40    13    80 1   
    41    14    15 1   
    42    14    81 1   
    43    14    82 1   
    44    15    16 1   
    45    15    83 1   
    46    15    84 1   
    47    16    17 1   
    48    16    85 1   
    49    16    86 1   
    50    17    18 1   
    51    17    87 1   
    52    17    88 1   
    53    18    19 1   
    54    18    20 1   
    55    20    21 1   
    56    21    22 1   
    57    21    34 1   
    58    21    35 1   
    59    22    23 1   
    60    22    89 1   
    61    22    90 1   
    62    23    24 1   
    63    24    25 1   
    64    24    26 1   
    65    24    27 1   
    66    27    28 1   
    67    28    29 1   
    68    28    91 1   
    69    28    92 1   
    70    29    30 1   
    71    29    93 1   
    72    29    94 1   
    73    30    31 1   
    74    30    32 1   
    75    30    33 1   
    76    31    95 1   
    77    31    96 1   
    78    31    97 1   
    79    32    98 1   
    80    32    99 1   
    81    32   100 1   
    82    33   101 1   
    83    33   102 1   
    84    33   103 1   
    85    34   104 1   
    86    34   105 1   
    87    34   106 1   
    88    35    36 1   
    89    35   107 1   
    90    35   108 1   
    91    36    37 1   
    92    37    38 1   
    93    37    39 1   
    94    39    40 1   
    95    39   109 1   
    96    39   110 1   
    97    40    41 1   
    98    40   111 1   
    99    40   112 1   
   100    41    42 1   
   101    41   113 1   
   102    41   114 1   
   103    42    43 1   
   104    42   115 1   
   105    42   116 1   
   106    43    44 1   
   107    43   117 1   
   108    43   118 1   
   109    44    45 1   
   110    44   119 1   
   111    44   120 1   
   112    45    46 1   
   113    45   121 1   
   114    46    47 1   
   115    46   122 1   
   116    47    48 1   
   117    47   123 1   
   118    47   124 1   
   119    48    49 1   
   120    48   125 1   
   121    48   126 1   
   122    49    50 1   
   123    49   127 1   
   124    49   128 1   
   125    50    51 1   
   126    50   129 1   
   127    50   130 1   
   128    51    52 1   
   129    51   131 1   
   130    51   132 1   
   131    52    53 1   
   132    52   133 1   
   133    52   134 1   
   134    53    54 1   
   135    53   135 1   
   136    53   136 1   
   137    54    55 1   
   138    54   137 1   
   139    54   138 1   
   140    55   139 1   
   141    55   140 1   
   142    55   141 1   
@<TRIPOS>SUBSTRUCTURE
     1 OPC         1 TEMP              0 ****  ****    0 ROOT
