@<TRIPOS>MOLECULE
molecule
   48    48     1     0     0
SMALL
bcc


@<TRIPOS>ATOM
      1 C8           0.0000     0.0000     0.0000 c2         1 OPD      -0.154200
      2 C7           1.3410     0.0000     0.0000 c2         1 OPD      -0.173200
      3 C5           3.1090     1.1980     1.2890 c3         1 OPD      -0.160700
      4 C1           2.3500     2.5030     1.3340 c          1 OPD       0.548300
      5 O6           1.3840     2.7880     0.6410 o          1 OPD      -0.523100
      6 C2           2.9400     3.4400     2.2990 ce         1 OPD      -0.261200
      7 C3           3.8980     2.7560     2.9250 c2         1 OPD      -0.102200
      8 C4           4.0480     1.3190     2.5090 c3         1 OPD      -0.046500
      9 C11          3.7480     0.3960     3.6810 c3         1 OPD      -0.069400
     10 C12          4.6810     0.6000     4.8770 c3         1 OPD      -0.078400
     11 C13          4.3940    -0.3540     6.0390 c3         1 OPD      -0.077400
     12 C14          5.3260    -0.1530     7.2390 c3         1 OPD      -0.076400
     13 C15          5.0220    -1.0900     8.4100 c3         1 OPD      -0.080400
     14 C16          5.9570    -0.8920     9.6100 c3         1 OPD      -0.072400
     15 C17          5.7050    -1.8270    10.7910 c3         1 OPD      -0.170400
     16 C18          6.6800    -1.6100    11.9200 c          1 OPD       0.894600
     17 O20          6.4340    -2.4130    12.9840 o          1 OPD      -0.857300
     18 O19          7.6010    -0.8030    11.8830 o          1 OPD      -0.857300
     19 C6           2.1760     0.0000     1.2470 c3         1 OPD      -0.017200
     20 C9          -0.8340    -0.0110    -1.2470 c3         1 OPD      -0.043200
     21 C10         -1.1420     1.4000    -1.7220 c3         1 OPD      -0.083100
     22 H81         -0.5170     0.0000     0.9520 ha         1 OPD       0.118000
     23 H71          1.8570    -0.0080    -0.9520 ha         1 OPD       0.114000
     24 H51          3.7180     1.1900     0.3930 hc         1 OPD       0.073700
     25 H21          3.1060     4.4730     2.0180 ha         1 OPD       0.163000
     26 H31          4.4720     3.1870     3.7360 ha         1 OPD       0.143000
     27 H41          5.0670     1.1550     2.1810 hc         1 OPD       0.066700
     28 H111         2.7290     0.5680     4.0040 hc         1 OPD       0.045700
     29 H112         3.8370    -0.6300     3.3440 hc         1 OPD       0.045700
     30 H121         5.7030     0.4510     4.5490 hc         1 OPD       0.036700
     31 H122         4.5750     1.6190     5.2300 hc         1 OPD       0.036700
     32 H131         3.3720    -0.2040     6.3650 hc         1 OPD       0.035200
     33 H132         4.5000    -1.3720     5.6850 hc         1 OPD       0.035200
     34 H141         5.2340     0.8710     7.5820 hc         1 OPD       0.035700
     35 H142         6.3470    -0.3210     6.9170 hc         1 OPD       0.035700
     36 H151         4.0020    -0.9200     8.7340 hc         1 OPD       0.026200
     37 H152         5.1110    -2.1140     8.0670 hc         1 OPD       0.026200
     38 H161         6.9760    -1.0360     9.2740 hc         1 OPD       0.038200
     39 H162         5.8530     0.1290     9.9570 hc         1 OPD       0.038200
     40 H171         5.7880    -2.8510    10.4490 hc         1 OPD       0.029200
     41 H172         4.7000    -1.6610    11.1600 hc         1 OPD       0.029200
     42 H61          1.5230     0.0290     2.1100 hc         1 OPD       0.052700
     43 H62          2.7650    -0.9090     1.2780 hc         1 OPD       0.052700
     44 H91         -0.2970    -0.5370    -2.0270 hc         1 OPD       0.037700
     45 H92         -1.7640    -0.5280    -1.0460 hc         1 OPD       0.037700
     46 H101        -2.0070     1.3810    -2.3740 hc         1 OPD       0.036033
     47 H102        -1.3490     2.0320    -0.8660 hc         1 OPD       0.036033
     48 H103        -0.2900     1.7930    -2.2630 hc         1 OPD       0.036033
@<TRIPOS>BOND
     1     1     2 2
     2     1    20 1
     3     1    22 1
     4     2    19 1
     5     2    23 1
     6     3     4 1
     7     3     8 1
     8     3    19 1
     9     3    24 1
    10     4     5 2
    11     4     6 1
    12     6     7 2
    13     6    25 1
    14     7     8 1
    15     7    26 1
    16     8     9 1
    17     8    27 1
    18     9    10 1
    19     9    28 1
    20     9    29 1
    21    10    11 1
    22    10    30 1
    23    10    31 1
    24    11    12 1
    25    11    32 1
    26    11    33 1
    27    12    13 1
    28    12    34 1
    29    12    35 1
    30    13    14 1
    31    13    36 1
    32    13    37 1
    33    14    15 1
    34    14    38 1
    35    14    39 1
    36    15    16 1
    37    15    40 1
    38    15    41 1
    39    16    17 1
    40    16    18 1
    41    19    42 1
    42    19    43 1
    43    20    21 1
    44    20    44 1
    45    20    45 1
    46    21    46 1
    47    21    47 1
    48    21    48 1
@<TRIPOS>SUBSTRUCTURE
     1 OPD         1 TEMP              0 ****  ****    0 ROOT
