@<TRIPOS>MOLECULE
OPD
   48    48     1     0     0
SMALL
bcc


@<TRIPOS>ATOM
      1 C8          0.4970    0.6300   -0.4260 c2        1 OPD     -0.177200
      2 C7          1.4730    1.4740   -0.0750 c2        1 OPD     -0.179200
      3 C5          3.5170    2.1330    1.2020 c3        1 OPD     -0.164700
      4 C1          3.3580    3.6390    0.9850 c         1 OPD      0.566300
      5 O6          2.8920    4.1800   -0.0180 o         1 OPD     -0.535100
      6 C2          3.9130    4.3240    2.1760 ce        1 OPD     -0.272200
      7 C3          4.4430    3.4260    3.0270 c2        1 OPD     -0.091200
      8 C4          4.3340    2.0120    2.5170 c3        1 OPD     -0.050500
      9 C11         3.7650    1.0640    3.5530 c3        1 OPD     -0.071400
     10 C12         4.6810    0.9120    4.7500 c3        1 OPD     -0.081400
     11 C13         4.1500   -0.1280    5.7150 c3        1 OPD     -0.079400
     12 C14         5.0570   -0.2750    6.9180 c3        1 OPD     -0.079400
     13 C15         4.5330   -1.3140    7.8850 c3        1 OPD     -0.078400
     14 C16         5.4390   -1.4530    9.0900 c3        1 OPD     -0.065400
     15 C17         4.9340   -2.4940   10.0590 c3        1 OPD     -0.194400
     16 C18         5.7530   -2.4870   11.3620 c         1 OPD      0.907600
     17 O20         6.1090   -3.6030   11.8380 o         1 OPD     -0.852300
     18 O19         6.0150   -1.3740   11.9050 o         1 OPD     -0.852300
     19 C6          2.1780    1.4210    1.2290 c3        1 OPD     -0.033200
     20 C9          0.0050   -0.4770    0.4270 c3        1 OPD     -0.051200
     21 C10        -1.2180   -1.1480   -0.1470 c3        1 OPD     -0.089100
     22 H81         0.0040    0.7350   -1.4070 ha        1 OPD      0.120000
     23 H71         1.7880    2.2830   -0.7580 ha        1 OPD      0.146000
     24 H51         4.1260    1.7200    0.3520 hc        1 OPD      0.077700
     25 H21         3.8660    5.4080    2.2820 ha        1 OPD      0.158000
     26 H31         4.9240    3.6300    3.9870 ha        1 OPD      0.152000
     27 H41         5.3710    1.6570    2.2530 hc        1 OPD      0.067700
     28 H111        2.7590    1.4260    3.8930 hc        1 OPD      0.047200
     29 H112        3.6200    0.0550    3.0840 hc        1 OPD      0.047200
     30 H121        4.7820    1.8940    5.2830 hc        1 OPD      0.038700
     31 H122        5.7070    0.6150    4.4070 hc        1 OPD      0.038700
     32 H131        4.0580   -1.1150    5.1910 hc        1 OPD      0.036200
     33 H132        3.1210    0.1640    6.0530 hc        1 OPD      0.036200
     34 H141        6.0870   -0.5640    6.5790 hc        1 OPD      0.037200
     35 H142        5.1480    0.7120    7.4440 hc        1 OPD      0.037200
     36 H151        3.5020   -1.0270    8.2210 hc        1 OPD      0.026700
     37 H152        4.4460   -2.3030    7.3630 hc        1 OPD      0.026700
     38 H161        6.4720   -1.7280    8.7520 hc        1 OPD      0.044200
     39 H162        5.5190   -0.4710    9.6290 hc        1 OPD      0.044200
     40 H171        4.9800   -3.5120    9.5970 hc        1 OPD      0.018700
     41 H172        3.8670   -2.2840   10.3240 hc        1 OPD      0.018700
     42 H61         2.3420    0.3450    1.5160 hc        1 OPD      0.056700
     43 H62         1.5220    1.8760    2.0200 hc        1 OPD      0.056700
     44 H91        -0.2310   -0.0840    1.4540 hc        1 OPD      0.047200
     45 H92         0.8240   -1.2380    0.5540 hc        1 OPD      0.047200
     46 H101       -0.9960   -1.5820   -1.1520 hc        1 OPD      0.032033
     47 H102       -1.5570   -1.9720    0.5260 hc        1 OPD      0.032033
     48 H103       -2.0540   -0.4160   -0.2580 hc        1 OPD      0.032033
@<TRIPOS>BOND
     1    1    2 2   
     2    1   20 1   
     3    1   22 1   
     4    2   19 1   
     5    2   23 1   
     6    3    4 1   
     7    3    8 1   
     8    3   19 1   
     9    3   24 1   
    10    4    5 2   
    11    4    6 1   
    12    6    7 2   
    13    6   25 1   
    14    7    8 1   
    15    7   26 1   
    16    8    9 1   
    17    8   27 1   
    18    9   10 1   
    19    9   28 1   
    20    9   29 1   
    21   10   11 1   
    22   10   30 1   
    23   10   31 1   
    24   11   12 1   
    25   11   32 1   
    26   11   33 1   
    27   12   13 1   
    28   12   34 1   
    29   12   35 1   
    30   13   14 1   
    31   13   36 1   
    32   13   37 1   
    33   14   15 1   
    34   14   38 1   
    35   14   39 1   
    36   15   16 1   
    37   15   40 1   
    38   15   41 1   
    39   16   17 1   
    40   16   18 1   
    41   19   42 1   
    42   19   43 1   
    43   20   21 1   
    44   20   44 1   
    45   20   45 1   
    46   21   46 1   
    47   21   47 1   
    48   21   48 1   
@<TRIPOS>SUBSTRUCTURE
     1 OPD         1 TEMP              0 ****  ****    0 ROOT
