@<TRIPOS>MOLECULE
OPE
   14    13     1     0     0
SMALL
bcc


@<TRIPOS>ATOM
      1 CA          0.0700   -0.8260    0.7030 c3        1 OPE      0.221400
      2 CB          1.4300   -0.0810    0.7560 c3        1 OPE      0.075800
      3 O1         -1.4510    1.5820   -0.0290 o         1 OPE     -0.934167
      4 O2         -3.0520    0.9360    1.8690 o         1 OPE     -0.934167
      5 O3         -2.6800   -0.6380   -0.1190 o         1 OPE     -0.934167
      6 O4         -0.8330   -0.2610    1.5570 os        1 OPE     -0.557200
      7 N           2.4240   -0.5290   -0.2020 n3        1 OPE     -0.914800
      8 P          -2.1750    0.5000    0.7300 p5        1 OPE      1.312900
      9 HA1         0.2700   -1.9030    1.0020 h1        1 OPE     -0.025300
     10 HA2        -0.3150   -0.8250   -0.3580 h1        1 OPE     -0.025300
     11 HB1         1.8700   -0.2020    1.7840 h1        1 OPE      0.047200
     12 HB2         1.2270    1.0140    0.5900 h1        1 OPE      0.047200
     13 HN1         2.1430   -0.2300   -1.1190 hn        1 OPE      0.310800
     14 HN2         2.4270   -1.5340   -0.2210 hn        1 OPE      0.310800
@<TRIPOS>BOND
     1    1    2 1
     2    1    6 1
     3    1    9 1
     4    1   10 1
     5    2    7 1
     6    2   11 1
     7    2   12 1
     8    3    8 1
     9    4    8 1
    10    5    8 1
    11    6    8 1
    12    7   13 1
    13    7   14 1
@<TRIPOS>SUBSTRUCTURE
     1 OPE         1 TEMP              0 ****  ****    0 ROOT
