@<TRIPOS>MOLECULE
OPG
   24    25     1     0     0
SMALL
bcc


@<TRIPOS>ATOM
      1 C1         -0.0050    0.0210    0.1280 c3        1 OPG     -0.111400
      2 C2          1.5110   -0.1080    0.0620 c3        1 OPG      0.105100
      3 O2          1.8850   -1.4100   -0.3700 oh        1 OPG     -0.602800
      4 C3          2.1600    0.0580    1.4490 c3        1 OPG      0.156100
      5 O3          3.5640   -0.0940    1.3290 oh        1 OPG     -0.590800
      6 C4          1.9310    1.4770    1.9990 c3        1 OPG      0.175100
      7 O4          2.1920    1.4060    3.3900 oh        1 OPG     -0.579800
      8 C5          0.5210    1.9860    1.7520 cx        1 OPG     -0.009200
      9 O8         -0.5560    1.1730    2.2600 os        1 OPG     -0.386600
     10 C7          0.3440    3.4640    2.0250 c3        1 OPG      0.143400
     11 C6         -0.4190    1.2770    0.8330 cx        1 OPG      0.090100
     12 O7          0.6080    3.7670    3.3800 oh        1 OPG     -0.599800
     13 H11        -0.4230    0.0200   -0.9120 hc        1 OPG      0.070200
     14 H12        -0.4290   -0.8680    0.6700 hc        1 OPG      0.070200
     15 H2          1.9390    0.6570   -0.6450 h1        1 OPG      0.048700
     16 HO2         1.5310   -1.5240   -1.2590 ho        1 OPG      0.408000
     17 H3          1.7410   -0.7020    2.1640 h1        1 OPG      0.078700
     18 HO3         3.7150   -1.0010    1.0320 ho        1 OPG      0.421000
     19 H4          2.6550    2.1860    1.5030 h1        1 OPG      0.063700
     20 HO4         2.2210    2.3170    3.7160 ho        1 OPG      0.419000
     21 H71         1.0950    4.0620    1.4420 h1        1 OPG      0.059700
     22 H72        -0.6970    3.7850    1.7520 h1        1 OPG      0.059700
     23 H6         -1.2420    1.8390    0.3480 h1        1 OPG      0.092700
     24 HO7         0.0040    3.2320    3.9140 ho        1 OPG      0.420000
@<TRIPOS>BOND
     1    1    2 1   
     2    1   11 1   
     3    1   13 1   
     4    1   14 1   
     5    2    3 1   
     6    2    4 1   
     7    2   15 1   
     8    3   16 1   
     9    4    5 1   
    10    4    6 1   
    11    4   17 1   
    12    5   18 1   
    13    6    7 1   
    14    6    8 1   
    15    6   19 1   
    16    7   20 1   
    17    8    9 1   
    18    8   10 1   
    19    8   11 1   
    20    9   11 1   
    21   10   12 1   
    22   10   21 1   
    23   10   22 1   
    24   11   23 1   
    25   12   24 1   
@<TRIPOS>SUBSTRUCTURE
     1 OPG         1 TEMP              0 ****  ****    0 ROOT
