@<TRIPOS>MOLECULE
molecule
   24    25     1     0     0
SMALL
bcc


@<TRIPOS>ATOM
      1 C1           0.0000     0.0000     0.0000 c3         1 OPG      -0.089400
      2 C2           1.5290     0.0000     0.0000 c3         1 OPG       0.138100
      3 O2           2.0090    -1.1690    -0.6680 oh         1 OPG      -0.592800
      4 C3           2.0190     0.0000     1.4530 c3         1 OPG       0.116100
      5 O3           3.4090    -0.3260     1.4900 oh         1 OPG      -0.600800
      6 C4           1.8020     1.3950     2.0400 c3         1 OPG       0.177100
      7 O4           2.1520     1.3820     3.4260 oh         1 OPG      -0.577800
      8 C5           0.3480     1.8160     1.8940 cx         1 OPG       0.075800
      9 O8          -0.6940     0.9120     2.2350 op         1 OPG      -0.361600
     10 C7           0.0770     3.2960     2.1670 c3         1 OPG       0.159400
     11 C6          -0.5260     1.1670     0.8310 cx         1 OPG       0.049100
     12 O7           1.0280     3.7880     3.1130 oh         1 OPG      -0.594800
     13 H11         -0.3570    -0.9300     0.4250 hc         1 OPG       0.068700
     14 H12         -0.3570     0.0960    -1.0180 hc         1 OPG       0.068700
     15 H2           1.8910     0.8880    -0.5040 h1         1 OPG       0.040700
     16 HO2          2.2960    -0.9390    -1.5360 ho         1 OPG       0.406000
     17 H3           1.4540    -0.7260     2.0260 h1         1 OPG       0.070700
     18 HO3          3.5350    -1.1090     2.0000 ho         1 OPG       0.415000
     19 H4           2.4310     2.1030     1.5150 h1         1 OPG       0.058700
     20 HO4          3.0540     1.6380     3.5250 ho         1 OPG       0.410000
     21 H71         -0.9230     3.4130     2.5670 h1         1 OPG       0.034200
     22 H72          0.1640     3.8560     1.2430 h1         1 OPG       0.034200
     23 H6          -1.2980     1.7980     0.4060 h1         1 OPG       0.091700
     24 HO7          0.8040     4.6720     3.3540 ho         1 OPG       0.404000
@<TRIPOS>BOND
     1     1     2 1
     2     1    11 1
     3     1    13 1
     4     1    14 1
     5     2     3 1
     6     2     4 1
     7     2    15 1
     8     3    16 1
     9     4     5 1
    10     4     6 1
    11     4    17 1
    12     5    18 1
    13     6     7 1
    14     6     8 1
    15     6    19 1
    16     7    20 1
    17     8     9 1
    18     8    10 1
    19     8    11 1
    20     9    11 1
    21    10    12 1
    22    10    21 1
    23    10    22 1
    24    11    23 1
    25    12    24 1
@<TRIPOS>SUBSTRUCTURE
     1 OPG         1 TEMP              0 ****  ****    0 ROOT
