@<TRIPOS>MOLECULE
OPH
   25    25     1     0     0
SMALL
bcc


@<TRIPOS>ATOM
      1 CA          1.4510   -0.5800    0.0970 c3        1 OPH      0.113100
      2 CB         -0.0340   -0.2210    0.0270 c3        1 OPH     -0.031100
      3 CG         -0.4920   -0.0110   -1.3730 ca        1 OPH     -0.090300
      4 CD1        -0.3420   -1.0260   -2.3250 ca        1 OPH     -0.121500
      5 CD2        -1.1050    1.1920   -1.7420 ca        1 OPH     -0.121500
      6 CE1        -0.7980   -0.8400   -3.6280 ca        1 OPH     -0.131500
      7 CE2        -1.5610    1.3750   -3.0460 ca        1 OPH     -0.131500
      8 CZ         -1.4100    0.3610   -3.9910 ca        1 OPH     -0.128000
      9 C           2.0750   -0.2080    1.4280 c         1 OPH      0.590100
     10 CS          2.3360    1.4280    3.1320 c3        1 OPH      0.124700
     11 OP          1.5600   -1.9800   -0.1020 oh        1 OPH     -0.590800
     12 OS          1.7380    1.0270    1.8970 os        1 OPH     -0.429900
     13 O           2.8710   -0.8930    2.0740 o         1 OPH     -0.544000
     14 HA          2.0320   -0.0370   -0.7040 h1        1 OPH      0.076700
     15 HB1        -0.2070    0.7070    0.6360 hc        1 OPH      0.075700
     16 HB2        -0.6280   -1.0570    0.4880 hc        1 OPH      0.075700
     17 HD1         0.1450   -1.9710   -2.0310 ha        1 OPH      0.141500
     18 HD2        -1.2280    1.9960   -1.0010 ha        1 OPH      0.141500
     19 HE1        -0.6770   -1.6420   -4.3710 ha        1 OPH      0.131500
     20 HE2        -2.0430    2.3230   -3.3290 ha        1 OPH      0.131500
     21 HZ         -1.7710    0.5070   -5.0190 ha        1 OPH      0.131000
     22 HS1         2.0470    0.7170    3.9430 h1        1 OPH      0.054367
     23 HS2         3.4470    1.4560    3.0240 h1        1 OPH      0.054367
     24 HS3         1.9140    2.4480    3.3080 h1        1 OPH      0.054367
     25 HO          2.4460   -2.2520    0.1790 ho        1 OPH      0.425000
@<TRIPOS>BOND
     1    1    2 1   
     2    1    9 1   
     3    1   11 1   
     4    1   14 1   
     5    2    3 1   
     6    2   15 1   
     7    2   16 1   
     8    3    4 ar  
     9    3    5 ar  
    10    4    6 ar  
    11    4   17 1   
    12    5    7 ar  
    13    5   18 1   
    14    6    8 ar  
    15    6   19 1   
    16    7    8 ar  
    17    7   20 1   
    18    8   21 1   
    19    9   12 1   
    20    9   13 2   
    21   10   12 1   
    22   10   22 1   
    23   10   23 1   
    24   10   24 1   
    25   11   25 1   
@<TRIPOS>SUBSTRUCTURE
     1 OPH         1 TEMP              0 ****  ****    0 ROOT
