@<TRIPOS>MOLECULE
molecule
   25    25     1     0     0
SMALL
bcc


@<TRIPOS>ATOM
      1 CA           1.5290     0.0000     0.0000 c3         1 OPH       0.115100
      2 CB           0.0000     0.0000     0.0000 c3         1 OPH      -0.024100
      3 CG          -0.5020     0.0000    -1.4200 ca         1 OPH      -0.089300
      4 CD1         -0.7320    -1.1960    -2.0710 ca         1 OPH      -0.114500
      5 CD2         -0.7380     1.1960    -2.0700 ca         1 OPH      -0.114500
      6 CE1         -1.1940    -1.1970    -3.3740 ca         1 OPH      -0.130000
      7 CE2         -1.1950     1.1960    -3.3740 ca         1 OPH      -0.130000
      8 CZ          -1.4250    -0.0010    -4.0260 ca         1 OPH      -0.126000
      9 C            2.0320     0.0000     1.4210 c          1 OPH       0.598100
     10 CS           2.1940     1.0080     3.6160 c3         1 OPH       0.146700
     11 OP           2.0050    -1.1670    -0.6720 oh         1 OPH      -0.569800
     12 OS           1.7090     1.0070     2.2460 os         1 OPH      -0.444900
     13 O            2.7270    -0.9060     1.8170 o          1 OPH      -0.531000
     14 HA           1.8910     0.8840    -0.5110 h1         1 OPH       0.060700
     15 HB1         -0.3610    -0.8850     0.5110 hc         1 OPH       0.068700
     16 HB2         -0.3610     0.8850     0.5110 hc         1 OPH       0.068700
     17 HD1         -0.5510    -2.1340    -1.5600 ha         1 OPH       0.134000
     18 HD2         -0.5580     2.1350    -1.5590 ha         1 OPH       0.134000
     19 HE1         -1.3740    -2.1360    -3.8840 ha         1 OPH       0.130000
     20 HE2         -1.3780     2.1340    -3.8840 ha         1 OPH       0.130000
     21 HZ          -1.7840    -0.0020    -5.0480 ha         1 OPH       0.129000
     22 HS1          1.8380     1.8950     4.1240 h1         1 OPH       0.049033
     23 HS2          1.8280     0.1260     4.1290 h1         1 OPH       0.049033
     24 HS3          3.2770     1.0010     3.6150 h1         1 OPH       0.049033
     25 HO           2.8910    -1.0230    -0.9630 ho         1 OPH       0.413000
@<TRIPOS>BOND
     1     1     2 1
     2     1     9 1
     3     1    11 1
     4     1    14 1
     5     2     3 1
     6     2    15 1
     7     2    16 1
     8     3     4 ar
     9     3     5 ar
    10     4     6 ar
    11     4    17 1
    12     5     7 ar
    13     5    18 1
    14     6     8 ar
    15     6    19 1
    16     7     8 ar
    17     7    20 1
    18     8    21 1
    19     9    12 1
    20     9    13 2
    21    10    12 1
    22    10    22 1
    23    10    23 1
    24    10    24 1
    25    11    25 1
@<TRIPOS>SUBSTRUCTURE
     1 OPH         1 TEMP              0 ****  ****    0 ROOT
