@<TRIPOS>MOLECULE
OPI
   54    53     1     0     0
SMALL
bcc


@<TRIPOS>ATOM
      1 OP1          0.0000     0.0000     0.0000 oh         1 OPI      -0.596800
      2 CP2          1.4290     0.0000     0.0000 c3         1 OPI       0.210400
      3 CP3          1.9390     0.0000     1.4430 c3         1 OPI       0.044000
      4 NP4          1.5510    -1.2520     2.0980 ns         1 OPI      -0.189900
      5 CP5          1.8940    -1.4760     3.3810 c          1 OPI       0.571100
      6 OP5          2.5230    -0.6400     3.9950 o          1 OPI      -0.640100
      7 CP6          1.4950    -2.7640     4.0550 c3         1 OPI      -0.110400
      8 CP7          2.0050    -2.7640     5.4970 c3         1 OPI       0.064000
      9 NP8          1.6170    -4.0170     6.1520 ns         1 OPI      -0.226900
     10 CP9          1.9600    -4.2390     7.4360 c          1 OPI       0.536100
     11 OP9          2.6090    -3.4140     8.0430 o          1 OPI      -0.605100
     12 CPA          1.5380    -5.5160     8.1170 c3         1 OPI       0.135100
     13 OPA          1.7230    -5.3860     9.5280 oh         1 OPI      -0.549800
     14 CPB          2.3880    -6.6770     7.5960 c3         1 OPI      -0.080000
     15 CPD          2.0860    -6.9040     6.1130 c3         1 OPI       0.003400
     16 CPE          2.0540    -7.9460     8.3830 c3         1 OPI       0.003400
     17 CPC          3.8700    -6.3440     7.7700 c3         1 OPI       0.227400
     18 OA6          4.6750    -7.4450     7.2750 os         1 OPI      -0.423900
     19 CT1          6.0140    -7.3750     7.3270 c          1 OPI       0.700100
     20 OT1          6.5510    -6.3920     7.7840 o          1 OPI      -0.575000
     21 CT2          6.8500    -8.5180     6.8130 c3         1 OPI      -0.114000
     22 CT3          8.3340    -8.1850     6.9870 c3         1 OPI       0.012900
     23 CT4          6.5490    -8.7440     5.3300 c3         1 OPI       0.012900
     24 CT5          6.5180    -9.7870     7.6010 c3         1 OPI       0.012900
     25 HP1         -0.3140     0.2580    -0.8510 ho         1 OPI       0.396000
     26 HP21         1.7900    -0.8850    -0.5110 h1         1 OPI      -0.006800
     27 HP22         1.7900     0.8850    -0.5110 h1         1 OPI      -0.006800
     28 HP31         3.0180     0.0890     1.4450 h1         1 OPI       0.034200
     29 HP32         1.5070     0.8370     1.9790 h1         1 OPI       0.034200
     30 HP4          1.0370    -1.9440     1.5890 hn         1 OPI       0.178500
     31 HP61         0.4150    -2.8520     4.0530 hc         1 OPI       0.026200
     32 HP62         1.9260    -3.6000     3.5190 hc         1 OPI       0.026200
     33 HP71         3.0840    -2.6750     5.4980 h1         1 OPI       0.044200
     34 HP72         1.5730    -1.9280     6.0330 h1         1 OPI       0.044200
     35 HP8          1.0420    -4.6770     5.6670 hn         1 OPI       0.178500
     36 HPA          0.4940    -5.7090     7.9060 h1         1 OPI       0.008700
     37 HPA0         0.9070    -5.1410     9.9310 ho         1 OPI       0.391000
     38 HPD1         1.0520    -6.6520     5.9120 hc         1 OPI       0.011033
     39 HPD2         2.2590    -7.9430     5.8640 hc         1 OPI       0.011033
     40 HPD3         2.7340    -6.2760     5.5130 hc         1 OPI       0.011033
     41 HPE1         2.3970    -8.8140     7.8320 hc         1 OPI       0.011033
     42 HPE2         0.9820    -8.0110     8.5260 hc         1 OPI       0.011033
     43 HPE3         2.5460    -7.9130     9.3480 hc         1 OPI       0.011033
     44 HPC1         4.0830    -6.1830     8.8200 h1         1 OPI       0.031700
     45 HPC2         4.1060    -5.4450     7.2120 h1         1 OPI       0.031700
     46 HT31         8.9350    -9.0070     6.6180 hc         1 OPI       0.011256
     47 HT32         8.5480    -8.0240     8.0370 hc         1 OPI       0.011256
     48 HT33         8.5700    -7.2860     6.4290 hc         1 OPI       0.011256
     49 HT41         5.5520    -9.1530     5.2230 hc         1 OPI       0.011256
     50 HT42         6.6120    -7.8010     4.8010 hc         1 OPI       0.011256
     51 HT43         7.2700    -9.4390     4.9170 hc         1 OPI       0.011256
     52 HT51         5.5310   -10.1360     7.3240 hc         1 OPI       0.011256
     53 HT52         7.2490   -10.5540     7.3740 hc         1 OPI       0.011256
     54 HT53         6.5400    -9.5700     8.6620 hc         1 OPI       0.011256
@<TRIPOS>BOND
     1     1     2 1   
     2     1    25 1   
     3     2     3 1   
     4     2    26 1   
     5     2    27 1   
     6     3     4 1   
     7     3    28 1   
     8     3    29 1   
     9     4     5 1   
    10     4    30 1   
    11     5     6 2   
    12     5     7 1   
    13     7     8 1   
    14     7    31 1   
    15     7    32 1   
    16     8     9 1   
    17     8    33 1   
    18     8    34 1   
    19     9    10 1   
    20     9    35 1   
    21    10    11 2   
    22    10    12 1   
    23    12    13 1   
    24    12    14 1   
    25    12    36 1   
    26    13    37 1   
    27    14    15 1   
    28    14    16 1   
    29    14    17 1   
    30    15    38 1   
    31    15    39 1   
    32    15    40 1   
    33    16    41 1   
    34    16    42 1   
    35    16    43 1   
    36    17    18 1   
    37    17    44 1   
    38    17    45 1   
    39    18    19 1   
    40    19    20 2   
    41    19    21 1   
    42    21    22 1   
    43    21    23 1   
    44    21    24 1   
    45    22    46 1   
    46    22    47 1   
    47    22    48 1   
    48    23    49 1   
    49    23    50 1   
    50    23    51 1   
    51    24    52 1   
    52    24    53 1   
    53    24    54 1   
@<TRIPOS>SUBSTRUCTURE
     1 OPI         1 TEMP              0 ****  ****    0 ROOT
