@<TRIPOS>MOLECULE
molecule
   19    18     1     0     0
SMALL
bcc


@<TRIPOS>ATOM
      1 C1           0.0000     0.0000     0.0000 c3         1 OPL       0.343900
      2 O1          -0.4760    -0.0000    -1.3480 oh         1 OPL      -0.624300
      3 C2           1.5290     0.0000     0.0000 c3         1 OPL      -0.038700
      4 O2          -0.4770     1.1670     0.6730 oh         1 OPL      -0.624300
      5 C3           2.0390     0.0000     1.4420 c3         1 OPL       0.032100
      6 C4           3.5410     0.1240     1.4450 c          1 OPL       0.540900
      7 O4           1.6610    -1.2210     2.0820 oh         1 OPL      -0.589800
      8 C5           2.0400    -1.2500    -0.7210 c3         1 OPL      -0.087100
      9 H2           1.8910     0.8840    -0.5110 hc         1 OPL       0.077700
     10 H3           1.6070     0.8370     1.9780 h1         1 OPL       0.068700
     11 H4           4.0120     1.0110     1.0380 h4         1 OPL      -0.000800
     12 HO4          1.6420    -1.0940     3.0160 ho         1 OPL       0.410000
     13 H5           1.7270    -1.2230    -1.7570 hc         1 OPL       0.049033
     14 H5A          1.6330    -2.1330    -0.2440 hc         1 OPL       0.049033
     15 H5B          3.1220    -1.2790    -0.6710 hc         1 OPL       0.049033
     16 H8          -1.4010    -0.1810    -1.3550 ho         1 OPL       0.404000
     17 H9          -0.3610    -0.8840     0.5110 h2         1 OPL       0.039700
     18 H10         -1.4180     1.1360     0.7270 ho         1 OPL       0.404000
     19 O3           4.2180    -0.7430     1.9420 o          1 OPL      -0.501100
@<TRIPOS>BOND
     1     1     2 1
     2     1     3 1
     3     1     4 1
     4     3     5 1
     5     3     8 1
     6     3     9 1
     7     5     6 1
     8     5     7 1
     9     5    10 1
    10    19     6 2
    11     6    11 1
    12     7    12 1
    13     8    13 1
    14     8    14 1
    15     8    15 1
    16     2    16 1
    17     1    17 1
    18     4    18 1
@<TRIPOS>SUBSTRUCTURE
     1 OPL         1 TEMP              0 ****  ****    0 ROOT
