@<TRIPOS>MOLECULE
OPL
   19    16     1     0     0
SMALL
bcc


@<TRIPOS>ATOM
      1 C1          0.3260    0.2210   -0.3560 c1        1 OPL     -0.032000
      2 O1         -2.2740    0.3220   -1.1550 oh        1 OPL     -0.410000
      3 C2          1.7480   -0.1410   -0.0530 c3        1 OPL     -0.221000
      4 O2         -0.0880    1.2830    0.3040 oh        1 OPL     -0.234000
      5 C3          2.0990   -0.0900    1.4330 c3        1 OPL     -0.029000
      6 C4          5.5200   -0.3440    2.4250 c1        1 OPL      0.190000
      7 O4          1.4170   -1.0620    2.1990 oh        1 OPL     -0.324000
      8 C5          2.0480   -1.5010   -0.6480 c3        1 OPL     -0.191000
      9 H2          3.2110   -0.2100    1.5630 h1        1 OPL      0.098000
     10 H3          2.3960    0.6280   -0.5710 hc        1 OPL      0.119000
     11 H4          1.7700    0.8910    1.8730 h1        1 OPL      0.098000
     12 HO4         1.6960   -1.9290    1.8780 ho        1 OPL      0.198000
     13 H5          1.3420   -2.2700   -0.2500 hc        1 OPL      0.078333
     14 H5A         3.0930   -1.8070   -0.4000 hc        1 OPL      0.078333
     15 H5B         1.9340   -1.4690   -1.7580 hc        1 OPL      0.078333
     16 H8         -1.5880    0.2900   -1.8310 ho        1 OPL      0.208500
     17 H9         -2.0840   -0.4570   -0.6210 ho        1 OPL      0.208500
     18 H10        -1.0180    1.4610    0.0480 ho        1 OPL      0.275000
     19 O3          6.3230   -0.2310    3.2700 o         1 OPL     -0.189000
@<TRIPOS>BOND
     1    1    3 1   
     2    1    4 1   
     3    2   16 1   
     4    2   17 1   
     5    3    5 1   
     6    3    8 1   
     7    3   10 1   
     8    4   18 1   
     9    5    7 1   
    10    5    9 1   
    11    5   11 1   
    12    6   19 1   
    13    7   12 1   
    14    8   13 1   
    15    8   14 1   
    16    8   15 1   
@<TRIPOS>SUBSTRUCTURE
     1 OPL         1 TEMP              0 ****  ****    0 ROOT
