@<TRIPOS>MOLECULE
OPN
   39    40     1     0     0
SMALL
bcc


@<TRIPOS>ATOM
      1 N1'         1.1420   -1.0240    0.1200 n4        1 OPN     -0.849600
      2 C2'         2.3560   -0.5680   -0.5950 c3        1 OPN      0.095800
      3 C3'         3.0620    0.6710   -0.0320 c3        1 OPN      0.085800
      4 N4'         3.8900    0.5220    1.2120 n4        1 OPN     -0.582200
      5 C5'         3.1610    0.9580    2.4430 c3        1 OPN     -0.043200
      6 C'          1.6750    0.4930    2.4200 c         1 OPN      0.900600
      7 O1'         1.4120   -0.6350    2.9090 o         1 OPN     -0.782300
      8 C7'         4.5680   -0.8440    1.2960 c         1 OPN      0.557100
      9 O7'         5.3380   -1.0600    0.3690 o         1 OPN     -0.443100
     10 C8'         4.2760   -1.7270    2.4780 c3        1 OPN     -0.099200
     11 C1          4.5610   -3.1520    2.1820 cc        1 OPN     -0.246400
     12 C6          5.5470   -3.8560    2.8050 cd        1 OPN      0.053800
     13 C2          3.6620   -3.8220    1.2320 c         1 OPN      0.735700
     14 O2          2.7600   -3.2140    0.5960 o         1 OPN     -0.764500
     15 N3          3.8240   -5.1810    1.0100 n         1 OPN     -0.479400
     16 C4          4.8240   -5.9180    1.6510 ca        1 OPN      0.555200
     17 C5          5.7120   -5.2540    2.5590 ca        1 OPN     -0.258100
     18 C7          6.7170   -6.0230    3.1890 ca        1 OPN     -0.026000
     19 C8          6.8130   -7.3720    2.9150 ca        1 OPN     -0.262300
     20 C9          5.8870   -7.9450    2.0010 ca        1 OPN      0.481200
     21 N10         4.9240   -7.2690    1.3810 nb        1 OPN     -0.693000
     22 OXT         0.8740    1.2170    1.7720 o         1 OPN     -0.782300
     23 H1'1        0.6400   -1.6980   -0.4620 hn        1 OPN      0.487133
     24 H1'2        0.5230   -0.2270    0.3720 hn        1 OPN      0.487133
     25 H1'3        1.4020   -1.5040    1.0090 hn        1 OPN      0.487133
     26 H2'1        3.0680   -1.4480   -0.6620 hx        1 OPN      0.128200
     27 H2'2        2.0460   -0.2860   -1.6480 hx        1 OPN      0.128200
     28 H3'1        3.7680    1.0050   -0.8510 hx        1 OPN      0.140700
     29 H3'2        2.3030    1.4980    0.1620 hx        1 OPN      0.140700
     30 H5'1        3.1730    2.0850    2.4700 hx        1 OPN      0.107700
     31 H5'2        3.6850    0.5560    3.3500 hx        1 OPN      0.107700
     32 H8'1        4.9130   -1.3630    3.3330 hc        1 OPN      0.140200
     33 H8'2        3.1880   -1.6340    2.7930 hc        1 OPN      0.140200
     34 H6          6.2330   -3.3720    3.5220 ha        1 OPN      0.156000
     35 HN3         3.1980   -5.6440    0.3800 hn        1 OPN      0.364500
     36 H7          7.4100   -5.5340    3.8920 ha        1 OPN      0.157000
     37 H8          7.5790   -8.0050    3.3840 ha        1 OPN      0.172000
     38 H9          5.9350   -9.0270    1.7600 h4        1 OPN      0.052100
     39 H4'1        4.6680    1.1940    1.0930 hn        1 OPN      0.449800
@<TRIPOS>BOND
     1    1    2 1
     2    1   23 1
     3    1   24 1
     4    1   25 1
     5    2    3 1
     6    2   26 1
     7    2   27 1
     8    3    4 1
     9    3   28 1
    10    3   29 1
    11    4    5 1
    12    4    8 1
    13    4   39 1
    14    5    6 1
    15    5   30 1
    16    5   31 1
    17    6    7 1
    18    6   22 1
    19    8    9 2
    20    8   10 1
    21   10   11 1
    22   10   32 1
    23   10   33 1
    24   11   12 2
    25   11   13 1
    26   12   17 1
    27   12   34 1
    28   13   14 2
    29   13   15 1
    30   15   16 1
    31   15   35 1
    32   16   17 ar
    33   16   21 ar
    34   17   18 ar
    35   18   19 ar
    36   18   36 1
    37   19   20 ar
    38   19   37 1
    39   20   21 ar
    40   20   38 1
@<TRIPOS>SUBSTRUCTURE
     1 OPN         1 TEMP              0 ****  ****    0 ROOT
