@<TRIPOS>MOLECULE
OPO
   15    15     1     0     0
SMALL
bcc


@<TRIPOS>ATOM
      1 O3           0.0000     0.0000     0.0000 o          1 OPO      -0.447000
      2 N1           1.2180     0.0000     0.0000 no         1 OPO       1.054200
      3 O2           1.8270     0.0000     1.0550 o          1 OPO      -0.447000
      4 C1           1.9580    -0.0050    -1.2810 ca         1 OPO      -0.485200
      5 C2           3.3460    -0.0050    -1.2820 ca         1 OPO       0.229100
      6 OH           4.0270     0.0000    -0.1070 oh         1 OPO      -0.455100
      7 C6           1.2690    -0.0160    -2.4780 ca         1 OPO       0.017000
      8 C5           1.9600    -0.0220    -3.6760 ca         1 OPO      -0.150000
      9 C4           3.3420    -0.0170    -3.6790 ca         1 OPO      -0.008000
     10 C3           4.0360    -0.0110    -2.4850 ca         1 OPO      -0.200000
     11 H6           0.1850    -0.0200    -2.4780 ha         1 OPO       0.133000
     12 HH           4.6720     0.6870    -0.1200 ho         1 OPO       0.412000
     13 H3           5.1200    -0.0090    -2.4880 ha         1 OPO       0.123000
     14 H5           1.4170    -0.0280    -4.6140 ha         1 OPO       0.118000
     15 H4           3.8810    -0.0210    -4.6190 ha         1 OPO       0.107000
@<TRIPOS>BOND
     1     1     2 1   
     2     2     3 1   
     3     2     4 1   
     4     4     5 ar  
     5     4     7 ar  
     6     5     6 1   
     7     5    10 ar  
     8     6    12 1   
     9     7     8 ar  
    10     7    11 1   
    11     8     9 ar  
    12     8    14 1   
    13     9    10 ar  
    14     9    15 1   
    15    10    13 1   
@<TRIPOS>SUBSTRUCTURE
     1 OPO         1 TEMP              0 ****  ****    0 ROOT
