@<TRIPOS>MOLECULE
molecule
   25    26     1     0     0
SMALL
bcc


@<TRIPOS>ATOM
      1 N            0.0000     0.0000     0.0000 n          1 OPP      -0.527900
      2 C1           1.3440     0.0000     0.0000 c          1 OPP       0.673200
      3 O1           2.0540     0.0050    -0.9850 o          1 OPP      -0.558500
      4 C2           1.8120     0.0000     1.4030 cc         1 OPP      -0.175700
      5 C3           0.7160    -0.0060     2.1780 cd         1 OPP      -0.175700
      6 C4          -0.4500    -0.0090     1.2670 c          1 OPP       0.673200
      7 O4          -1.6160    -0.0140     1.6070 o          1 OPP      -0.558500
      8 C5          -0.8450     0.0000    -1.1960 c3         1 OPP       0.281800
      9 O           -1.1290     1.3470    -1.5780 os         1 OPP      -0.391600
     10 C5'         -0.0940     1.7470    -2.4780 c3         1 OPP       0.281800
     11 N'          -0.4880     1.4240    -3.8510 n          1 OPP      -0.527900
     12 C1'         -1.1660     2.2420    -4.6770 c          1 OPP       0.673200
     13 O1'         -1.5490     3.3630    -4.4090 o          1 OPP      -0.558500
     14 C2'         -1.3650     1.5460    -5.9670 cc         1 OPP      -0.175700
     15 C3'         -0.7920     0.3370    -5.8460 cd         1 OPP      -0.175700
     16 C4'         -0.2230     0.2670    -4.4820 c          1 OPP       0.673200
     17 O4'          0.3730    -0.6780    -4.0090 o          1 OPP      -0.558500
     18 H2           2.6780    -0.5870     1.6850 ha         1 OPP       0.185500
     19 H3           0.6920     0.5830     3.0870 ha         1 OPP       0.185500
     20 H51         -0.3270    -0.5030    -2.0040 h2         1 OPP       0.096700
     21 H52         -1.7720    -0.5180    -0.9830 h2         1 OPP       0.096700
     22 H5'1         0.0670     2.8150    -2.3910 h2         1 OPP       0.096700
     23 H5'2         0.8210     1.2230    -2.2320 h2         1 OPP       0.096700
     24 H2'         -2.3010     1.6500    -6.5000 ha         1 OPP       0.185500
     25 H3'         -0.2510    -0.0930    -6.6810 ha         1 OPP       0.185500
@<TRIPOS>BOND
     1     1     2 1
     2     1     6 1
     3     1     8 1
     4     2     3 2
     5     2     4 1
     6     4     5 2
     7     4    18 1
     8     5     6 1
     9     5    19 1
    10     6     7 2
    11     8     9 1
    12     8    20 1
    13     8    21 1
    14     9    10 1
    15    10    11 1
    16    10    22 1
    17    10    23 1
    18    11    12 1
    19    11    16 1
    20    12    13 2
    21    12    14 1
    22    14    15 2
    23    14    24 1
    24    15    16 1
    25    15    25 1
    26    16    17 2
@<TRIPOS>SUBSTRUCTURE
     1 OPP         1 TEMP              0 ****  ****    0 ROOT
