@<TRIPOS>MOLECULE
OPQ
   82    83     1     0     0
SMALL
bcc


@<TRIPOS>ATOM
      1 C1           0.0000     0.0000     0.0000 c3         1 OPQ       0.005900
      2 C2           1.5300     0.0000     0.0000 c3         1 OPQ      -0.021400
      3 C3           2.0400     0.0000     1.4430 c3         1 OPQ      -0.043400
      4 C4           3.5700     0.0010     1.4420 c3         1 OPQ       0.049000
      5 N5           4.0590    -0.0000     2.8220 ns         1 OPQ      -0.199900
      6 C6           5.3840     0.0010     3.0690 c          1 OPQ       0.583100
      7 O7           6.1710     0.0010     2.1470 o          1 OPQ      -0.657100
      8 C8           5.8860    -0.0010     4.4900 c3         1 OPQ      -0.129400
      9 C9           7.4160     0.0000     4.4890 c3         1 OPQ       0.199100
     10 O11          7.8920    -1.1660     3.8150 oh         1 OPQ      -0.592800
     11 C12          7.9270    -0.0010     5.9310 c3         1 OPQ      -0.026300
     12 C14          9.4560    -0.0000     5.9310 c3         1 OPQ      -0.040400
     13 C1A          9.9660     0.1360     7.3670 c3         1 OPQ      -0.055700
     14 C15         11.4930     0.0250     7.3780 c3         1 OPQ      -0.003100
     15 C16          9.5490     1.4950     7.9300 c3         1 OPQ      -0.003100
     16 N17          7.4390    -1.1980     6.6210 ns         1 OPQ      -0.160900
     17 C18          6.7390    -1.0780     7.7660 c          1 OPQ       0.565100
     18 O19          6.4610     0.0220     8.1940 o          1 OPQ      -0.670100
     19 C20          6.3000    -2.3090     8.5150 c3         1 OPQ      -0.054300
     20 N22          5.5610    -1.9150     9.7160 ns         1 OPQ      -0.175900
     21 C23          5.5880    -2.6980    10.8110 c          1 OPQ       0.570100
     22 O24          6.2230    -3.7300    10.8030 o          1 OPQ      -0.646100
     23 C25          4.8280    -2.2910    12.0480 c3         1 OPQ      -0.039100
     24 C26          5.0210    -3.3300    13.1210 ca         1 OPQ      -0.065300
     25 C27          6.0840    -3.2070    14.0130 ca         1 OPQ      -0.083000
     26 C28          6.2860    -4.1280    14.9940 ca         1 OPQ      -0.085000
     27 C29          5.4120    -5.2220    15.1130 ca         1 OPQ      -0.034000
     28 C30          5.5890    -6.1920    16.1130 ca         1 OPQ      -0.087000
     29 C31          4.7220    -7.2390    16.1970 ca         1 OPQ      -0.102000
     30 C32          3.6590    -7.3620    15.3050 ca         1 OPQ      -0.102000
     31 C33          3.4570    -6.4410    14.3230 ca         1 OPQ      -0.088000
     32 C34          4.3310    -5.3480    14.2040 ca         1 OPQ      -0.030000
     33 C35          4.1510    -4.3740    13.2070 ca         1 OPQ      -0.078000
     34 C36          5.3980    -3.1580     7.6170 c3         1 OPQ      -0.061700
     35 C37          4.9530    -4.4080     8.3770 c3         1 OPQ      -0.019100
     36 C38          4.1680    -2.3420     7.2140 c3         1 OPQ      -0.041400
     37 C39          3.2650    -3.1900     6.3160 c3         1 OPQ       0.003900
     38 H40         -0.3610     0.0340    -1.0210 hc         1 OPQ       0.001700
     39 H41         -0.3610     0.8670     0.5400 hc         1 OPQ       0.001700
     40 H42         -0.3610    -0.9010     0.4810 hc         1 OPQ       0.001700
     41 H43          1.8910     0.8840    -0.5110 hc         1 OPQ       0.016200
     42 H44          1.8910    -0.8840    -0.5110 hc         1 OPQ       0.016200
     43 H45          1.6790     0.8840     1.9540 hc         1 OPQ       0.016700
     44 H46          1.6800    -0.8850     1.9530 hc         1 OPQ       0.016700
     45 H47          3.9300     0.8870     0.9330 h1         1 OPQ       0.027200
     46 H48          3.9320    -0.8820     0.9300 h1         1 OPQ       0.027200
     47 H49          3.4080     0.0230     3.5830 hn         1 OPQ       0.174500
     48 H50          5.5260    -0.8870     4.9990 hc         1 OPQ       0.042700
     49 H51          5.5240     0.8820     5.0020 hc         1 OPQ       0.042700
     50 H10          7.7760     0.8850     3.9790 h1         1 OPQ       0.023700
     51 H52          8.4030    -0.9090     3.0650 ho         1 OPQ       0.412000
     52 H13          7.5660     0.8830     6.4430 h1         1 OPQ       0.082700
     53 H53          9.8170     0.8330     5.3390 hc         1 OPQ       0.027700
     54 H54          9.8180    -0.9280     5.5050 hc         1 OPQ       0.027700
     55 H55          9.5430    -0.6530     7.9760 hc         1 OPQ       0.025700
     56 H56         11.9170     0.8270     6.7860 hc         1 OPQ       0.007033
     57 H57         11.7890    -0.9290     6.9600 hc         1 OPQ       0.007033
     58 H58         11.8520     0.1000     8.3970 hc         1 OPQ       0.007033
     59 H59          8.6130     1.3920     8.4660 hc         1 OPQ       0.007033
     60 H60         10.3150     1.8550     8.6070 hc         1 OPQ       0.007033
     61 H61          9.4250     2.2000     7.1180 hc         1 OPQ       0.007033
     62 H62          7.6590    -2.1060     6.2630 hn         1 OPQ       0.191500
     63 H21          7.1710    -2.8870     8.8000 h1         1 OPQ       0.074700
     64 H63          5.0690    -1.0430     9.7360 hn         1 OPQ       0.196500
     65 H64          5.1970    -1.3350    12.4010 hc         1 OPQ       0.032200
     66 H65          3.7740    -2.2060    11.8120 hc         1 OPQ       0.032200
     67 H66          6.7590    -2.3640    13.9250 ha         1 OPQ       0.102000
     68 H67          7.1170    -4.0190    15.6810 ha         1 OPQ       0.105000
     69 H68          6.4120    -6.1090    16.8130 ha         1 OPQ       0.105000
     70 H69          4.8610    -7.9860    16.9690 ha         1 OPQ       0.100000
     71 H70          2.9840    -8.2040    15.3930 ha         1 OPQ       0.099000
     72 H71          2.6260    -6.5500    13.6370 ha         1 OPQ       0.104000
     73 H72          3.3900    -4.5090    12.4490 ha         1 OPQ       0.107000
     74 H73          5.9450    -3.4500     6.7280 hc         1 OPQ       0.033700
     75 H74          4.5810    -5.1440     7.6740 hc         1 OPQ       0.019367
     76 H75          4.1680    -4.1470     9.0750 hc         1 OPQ       0.019367
     77 H76          5.7960    -4.8210     8.9180 hc         1 OPQ       0.019367
     78 H77          3.6220    -2.0490     8.1020 hc         1 OPQ       0.018200
     79 H78          4.4830    -1.4560     6.6750 hc         1 OPQ       0.018200
     80 H79          3.8740    -3.7490     5.6160 hc         1 OPQ       0.003700
     81 H80          2.5890    -2.5430     5.7700 hc         1 OPQ       0.003700
     82 H81          2.6930    -3.8780     6.9260 hc         1 OPQ       0.003700
@<TRIPOS>BOND
     1     1     2 1   
     2     1    38 1   
     3     1    39 1   
     4     1    40 1   
     5     2     3 1   
     6     2    41 1   
     7     2    42 1   
     8     3     4 1   
     9     3    43 1   
    10     3    44 1   
    11     4     5 1   
    12     4    45 1   
    13     4    46 1   
    14     5     6 1   
    15     5    47 1   
    16     6     7 2   
    17     6     8 1   
    18     8     9 1   
    19     8    48 1   
    20     8    49 1   
    21     9    10 1   
    22     9    11 1   
    23     9    50 1   
    24    10    51 1   
    25    11    12 1   
    26    11    16 1   
    27    11    52 1   
    28    12    13 1   
    29    12    53 1   
    30    12    54 1   
    31    13    14 1   
    32    13    15 1   
    33    13    55 1   
    34    14    56 1   
    35    14    57 1   
    36    14    58 1   
    37    15    59 1   
    38    15    60 1   
    39    15    61 1   
    40    16    17 1   
    41    16    62 1   
    42    17    18 2   
    43    17    19 1   
    44    19    20 1   
    45    19    34 1   
    46    19    63 1   
    47    20    21 1   
    48    20    64 1   
    49    21    22 2   
    50    21    23 1   
    51    23    24 1   
    52    23    65 1   
    53    23    66 1   
    54    24    25 ar  
    55    24    33 ar  
    56    25    26 ar  
    57    25    67 1   
    58    26    27 ar  
    59    26    68 1   
    60    27    28 ar  
    61    27    32 ar  
    62    28    29 ar  
    63    28    69 1   
    64    29    30 ar  
    65    29    70 1   
    66    30    31 ar  
    67    30    71 1   
    68    31    32 ar  
    69    31    72 1   
    70    32    33 ar  
    71    33    73 1   
    72    34    35 1   
    73    34    36 1   
    74    34    74 1   
    75    35    75 1   
    76    35    76 1   
    77    35    77 1   
    78    36    37 1   
    79    36    78 1   
    80    36    79 1   
    81    37    80 1   
    82    37    81 1   
    83    37    82 1   
@<TRIPOS>SUBSTRUCTURE
     1 OPQ         1 TEMP              0 ****  ****    0 ROOT
