@<TRIPOS>MOLECULE
OPV
   43    45     1     0     0
SMALL
bcc


@<TRIPOS>ATOM
      1 CAJ          0.0000     0.0000     0.0000 cc         1 OPV      -0.433600
      2 NAM          1.3690     0.0000     0.0000 na         1 OPV       0.250100
      3 CAI          1.7690     0.0000     1.2900 cc         1 OPV       0.206400
      4 NAO          0.7110    -0.0010     2.0550 nd         1 OPV      -0.617000
      5 CAT         -0.3890     0.0040     1.2890 cd         1 OPV       0.293600
      6 CAK         -1.8130     0.0050     1.7850 c3         1 OPV      -0.052700
      7 CAL         -2.0250    -1.1800     2.7280 c3         1 OPV       0.084000
      8 NAY         -3.4090    -1.1790     3.2090 n          1 OPV      -0.037300
      9 C           -4.4690    -1.5550     2.4660 c          1 OPV       0.599500
     10 O           -4.4350    -1.9600     1.3240 o          1 OPV      -0.622500
     11 OG1         -3.7970    -0.7900     4.5130 os         1 OPV      -0.280900
     12 CB          -5.2060    -0.4940     4.4850 c3         1 OPV       0.160100
     13 CG2         -5.4440     0.9870     4.1870 c3         1 OPV      -0.019100
     14 CA          -5.7110    -1.3800     3.3210 c3         1 OPV      -0.099300
     15 N           -6.1810    -2.6730     3.8240 ns         1 OPV      -0.192900
     16 CAQ         -7.0110    -3.4260     3.0750 c          1 OPV       0.596700
     17 OAB         -7.3700    -3.0320     1.9820 o          1 OPV      -0.599100
     18 CAV         -7.4850    -4.7270     3.5820 ca         1 OPV      -0.172600
     19 CAH         -7.0740    -5.1840     4.8380 ca         1 OPV      -0.083000
     20 CAF         -7.5200    -6.4000     5.3070 ca         1 OPV      -0.110000
     21 CAG         -8.3740    -7.1760     4.5420 ca         1 OPV      -0.107000
     22 CAS         -8.7890    -6.7380     3.2950 ca         1 OPV       0.061100
     23 OAD         -9.6310    -7.5040     2.5520 oh         1 OPV      -0.494100
     24 CAU         -8.3520    -5.5100     2.8100 ca         1 OPV       0.176100
     25 OAE         -8.7580    -5.0770     1.5890 oh         1 OPV      -0.459100
     26 H1          -0.6460     0.0010    -0.8700 h4         1 OPV       0.158000
     27 H2           1.9620    -0.0010    -0.8060 hn         1 OPV       0.120700
     28 H3           2.7960    -0.0020     1.6330 h5         1 OPV       0.022100
     29 H5          -2.0100     0.9290     2.3150 hc         1 OPV       0.027700
     30 H6          -2.4890    -0.0790     0.9420 hc         1 OPV       0.027700
     31 H7          -1.8280    -2.1040     2.1980 h1         1 OPV       0.041200
     32 H8          -1.3500    -1.0970     3.5710 h1         1 OPV       0.041200
     33 H9          -5.6750    -0.7850     5.4170 h1         1 OPV       0.046700
     34 H10         -5.2700     1.1770     3.1350 hc         1 OPV       0.018367
     35 H11         -6.4660     1.2460     4.4360 hc         1 OPV       0.018367
     36 H12         -4.7640     1.5890     4.7790 hc         1 OPV       0.018367
     37 H13         -6.4880    -0.8710     2.7640 h1         1 OPV       0.086700
     38 H14         -5.9070    -2.9850     4.7340 hn         1 OPV       0.182500
     39 H15         -6.4060    -4.5820     5.4420 ha         1 OPV       0.103000
     40 H16         -7.2000    -6.7520     6.2810 ha         1 OPV       0.107000
     41 H17         -8.7180    -8.1320     4.9200 ha         1 OPV       0.113000
     42 H18         -9.1560    -8.2320     2.1870 ho         1 OPV       0.409000
     43 H19         -9.6730    -4.8550     1.6220 ho         1 OPV       0.410000
@<TRIPOS>BOND
     1     1     2 1   
     2     1     5 2   
     3     1    26 1   
     4     2     3 1   
     5     2    27 1   
     6     3     4 2   
     7     3    28 1   
     8     4     5 1   
     9     5     6 1   
    10     6     7 1   
    11     6    29 1   
    12     6    30 1   
    13     7     8 1   
    14     7    31 1   
    15     7    32 1   
    16     8     9 1   
    17     8    11 1   
    18     9    10 2   
    19     9    14 1   
    20    11    12 1   
    21    12    13 1   
    22    12    14 1   
    23    12    33 1   
    24    13    34 1   
    25    13    35 1   
    26    13    36 1   
    27    14    15 1   
    28    14    37 1   
    29    15    16 1   
    30    15    38 1   
    31    16    17 2   
    32    16    18 1   
    33    18    19 ar  
    34    18    24 ar  
    35    19    20 ar  
    36    19    39 1   
    37    20    21 ar  
    38    20    40 1   
    39    21    22 ar  
    40    21    41 1   
    41    22    23 1   
    42    22    24 ar  
    43    23    42 1   
    44    24    25 1   
    45    25    43 1   
@<TRIPOS>SUBSTRUCTURE
     1 OPV         1 TEMP              0 ****  ****    0 ROOT
