@<TRIPOS>MOLECULE
OPX
   41    42     1     0     0
SMALL
bcc


@<TRIPOS>ATOM
      1 CAF          0.0000     0.0000     0.0000 c3         1 OPX      -0.023400
      2 CAG          1.5300     0.0000     0.0000 c3         1 OPX      -0.023900
      3 CAH         -0.5100    -1.2500     0.7200 c3         1 OPX      -0.023900
      4 CAI          2.0390     0.0000     1.4430 c3         1 OPX      -0.028900
      5 CAJ          0.0000    -1.2520     2.1630 c3         1 OPX      -0.028900
      6 CAK          2.0820    -2.6170     4.0840 c3         1 OPX       0.181800
      7 CAL          2.6670    -4.0030     6.0990 c3         1 OPX       0.000100
      8 CAM          4.0310    -2.0160     5.5600 c3         1 OPX       0.000100
      9 CAO          4.1440    -4.2590     6.4610 c3         1 OPX       0.163100
     10 CAP          4.9320    -3.2760     5.5600 c3         1 OPX       0.163100
     11 CAQ          1.5300    -1.2500     2.1640 c3         1 OPX       0.119500
     12 CAR          2.5950    -2.5780     5.5240 c3         1 OPX      -0.068200
     13 NAN          2.0190    -1.2510     3.5480 n7         1 OPX      -0.527200
     14 OAC          4.5060    -5.6090     6.1650 oh         1 OPX      -0.573800
     15 OAD          5.0690    -3.8020     4.2380 oh         1 OPX      -0.573800
     16 SAS          1.5000    -1.5510     6.5450 s6         1 OPX       0.960800
     17 H1          -0.3600    -0.0010    -1.0220 hc         1 OPX       0.005200
     18 H2          -0.3600     0.8830     0.5140 hc         1 OPX       0.005200
     19 H3           1.8890    -0.8860    -0.5090 hc         1 OPX       0.001200
     20 H4           1.8890     0.8860    -0.5090 hc         1 OPX       0.001200
     21 H5          -0.1460    -2.1330     0.2090 hc         1 OPX       0.001200
     22 H6          -1.5930    -1.2480     0.7210 hc         1 OPX       0.001200
     23 H7           1.6750     0.8830     1.9540 hc         1 OPX       0.028200
     24 H8           3.1230    -0.0020     1.4420 hc         1 OPX       0.028200
     25 H9          -0.3600    -0.3660     2.6730 hc         1 OPX       0.028200
     26 H10         -0.3590    -2.1380     2.6710 hc         1 OPX       0.028200
     27 H11          2.7550    -3.2120     3.4780 h1         1 OPX       0.005700
     28 H12          1.0930    -3.0590     4.0650 h1         1 OPX       0.005700
     29 H13          2.3390    -4.7190     5.3540 hc         1 OPX       0.030200
     30 H14          2.0500    -4.0750     6.9870 hc         1 OPX       0.030200
     31 H15          4.1890    -1.4390     6.4630 hc         1 OPX       0.030200
     32 H16          4.2240    -1.4150     4.6800 hc         1 OPX       0.030200
     33 H17          4.3190    -4.0350     7.5060 h1         1 OPX      -0.003800
     34 H18          5.8990    -3.0530     5.9940 h1         1 OPX      -0.003800
     35 H19          1.8890    -2.1330     1.6480 h1         1 OPX      -0.008300
     36 H20          2.9300    -0.8370     3.5800 hn         1 OPX       0.258800
     37 H22          4.7820    -6.0410     6.9570 ho         1 OPX       0.367500
     38 H23          5.9840    -3.9150     4.0380 ho         1 OPX       0.367500
     39 OAA          0.1510    -1.9720     6.4070 o          1 OPX      -0.650867
     40 OAB          2.0730    -1.3340     7.8270 o          1 OPX      -0.650867
     41 OAE          1.5370    -0.1820     5.8810 o          1 OPX      -0.650867
@<TRIPOS>BOND
     1     1     2 1   
     2     1     3 1   
     3     1    17 1   
     4     1    18 1   
     5     2     4 1   
     6     2    19 1   
     7     2    20 1   
     8     3     5 1   
     9     3    21 1   
    10     3    22 1   
    11     4    11 1   
    12     4    23 1   
    13     4    24 1   
    14     5    11 1   
    15     5    25 1   
    16     5    26 1   
    17     6    12 1   
    18     6    13 1   
    19     6    27 1   
    20     6    28 1   
    21     7     9 1   
    22     7    12 1   
    23     7    29 1   
    24     7    30 1   
    25     8    10 1   
    26     8    12 1   
    27     8    31 1   
    28     8    32 1   
    29     9    10 1   
    30     9    14 1   
    31     9    33 1   
    32    10    15 1   
    33    10    34 1   
    34    11    13 1   
    35    11    35 1   
    36    12    16 1   
    37    13    36 1   
    38    14    37 1   
    39    15    38 1   
    40    16    39 1   
    41    16    40 1   
    42    16    41 1   
@<TRIPOS>SUBSTRUCTURE
     1 OPX         1 TEMP              0 ****  ****    0 ROOT
