@<TRIPOS>MOLECULE
molecule
   34    34     1     0     0
SMALL
bcc


@<TRIPOS>ATOM
      1 C            0.0000     0.0000     0.0000 c          1 OPY       0.625100
      2 N            1.9970     1.1990    -0.6930 nz         1 OPY      -0.818600
      3 O           -0.6070     1.0360    -0.1780 o          1 OPY      -0.553100
      4 CA           1.5070     0.0000     0.0000 c3         1 OPY       0.082500
      5 CB           2.0170     0.0000     1.4430 c3         1 OPY      -0.254400
      6 CAD          3.5410    -0.1250     1.4450 c3         1 OPY       0.124800
      7 CAE         -1.9870    -3.5660    -0.4580 c3         1 OPY      -0.083400
      8 CAF         -2.6310    -2.2170    -0.7890 c3         1 OPY      -0.097900
      9 CAG         -0.4660    -3.4500    -0.5820 c3         1 OPY      -0.097900
     10 CAI         -2.1430    -1.1640     0.2110 c3         1 OPY       0.090000
     11 CAJ          0.0460    -2.4110     0.4200 c3         1 OPY       0.090000
     12 NAM         -0.6740    -1.1490     0.2030 n          1 OPY      -0.436800
     13 HN           2.6630     0.9330    -1.3910 hn         1 OPY       0.472800
     14 HNA          2.4330     1.8120    -0.0320 hn         1 OPY       0.472800
     15 HA           1.8690    -0.8850    -0.5110 hx         1 OPY       0.115700
     16 HB           2.1370    -0.8800     0.8230 hc         1 OPY       0.139200
     17 HBA          1.4250    -0.3760     2.2690 hc         1 OPY       0.139200
     18 HNAA         3.7200     0.7060     3.2930 hn         1 OPY       0.477800
     19 HNAB         3.6730    -0.9270     3.3100 hn         1 OPY       0.477800
     20 HAD          3.8290    -1.0510     0.9610 hx         1 OPY       0.102700
     21 HADA         3.9730     0.7120     0.9090 hx         1 OPY       0.102700
     22 HAF         -2.3500    -1.9200    -1.7920 hc         1 OPY       0.072700
     23 HAFA        -3.7090    -2.3070    -0.7210 hc         1 OPY       0.072700
     24 HAG         -0.2090    -3.1390    -1.5870 hc         1 OPY       0.072700
     25 HAGA        -0.0130    -4.4110    -0.3680 hc         1 OPY       0.072700
     26 HAI         -2.4970    -1.4150     1.2040 h1         1 OPY       0.061450
     27 HAIA        -2.5170    -0.1890    -0.0780 h1         1 OPY       0.061450
     28 HAJ         -0.1330    -2.7610     1.4290 h1         1 OPY       0.061450
     29 HAJA         1.1070    -2.2530     0.2680 h1         1 OPY       0.061450
     30 HAE         -2.2440    -3.8490     0.5550 hc         1 OPY       0.073200
     31 NAA          4.0300    -0.1250     2.8300 nz         1 OPY      -0.803600
     32 HN3          1.2280     1.6710    -1.1270 hn         1 OPY       0.472800
     33 HAA3         5.0310    -0.1460     2.8310 hn         1 OPY       0.477800
     34 HAEA        -2.3480    -4.3160    -1.1510 hc         1 OPY       0.073200
@<TRIPOS>BOND
     1     3     1 2
     2     4     1 1
     3     1    12 1
     4     2     4 1
     5     2    13 1
     6     2    14 1
     7     4     5 1
     8     4    15 1
     9     5     6 1
    10     5    16 1
    11     5    17 1
    12     6    31 1
    13    31    18 1
    14    31    19 1
    15     6    20 1
    16     6    21 1
    17     8     7 1
    18     9     7 1
    19     7    30 1
    20     7    34 1
    21    10     8 1
    22     8    22 1
    23     8    23 1
    24    11     9 1
    25     9    24 1
    26     9    25 1
    27    12    10 1
    28    10    26 1
    29    10    27 1
    30    12    11 1
    31    11    28 1
    32    11    29 1
    33    32     2 1
    34    33    31 1
@<TRIPOS>SUBSTRUCTURE
     1 OPY         1 TEMP              0 ****  ****    0 ROOT
