@<TRIPOS>MOLECULE
OPZ
   43    45     1     0     0
SMALL
bcc


@<TRIPOS>ATOM
      1 CAJ          0.0000     0.0000     0.0000 cc         1 OPZ      -0.432600
      2 NAM          1.3690     0.0000     0.0000 na         1 OPZ       0.248100
      3 CAI          1.7680     0.0000     1.2910 cc         1 OPZ       0.207400
      4 NAO          0.7110    -0.0000     2.0550 nd         1 OPZ      -0.616000
      5 CAT         -0.3900    -0.0020     1.2890 cd         1 OPZ       0.292600
      6 CAK         -1.8140     0.0030     1.7830 c3         1 OPZ      -0.051700
      7 CAL         -2.0270    -1.1790     2.7310 c3         1 OPZ       0.083000
      8 NAY         -3.4110    -1.1740     3.2110 n          1 OPZ      -0.036300
      9 C           -4.4720    -1.5520     2.4690 c          1 OPZ       0.596500
     10 O           -4.4390    -1.9590     1.3280 o          1 OPZ      -0.624500
     11 OG1         -3.7980    -0.7800     4.5140 os         1 OPZ      -0.283900
     12 CB          -5.2090    -0.4890     4.4860 c3         1 OPZ       0.161100
     13 CG2         -5.8730    -0.8900     5.8040 c3         1 OPZ      -0.006100
     14 CA          -5.7130    -1.3710     3.3230 c3         1 OPZ      -0.098300
     15 N           -6.1830    -2.6670     3.8200 ns         1 OPZ      -0.198900
     16 CAQ         -7.0940    -3.3690     3.1170 c          1 OPZ       0.598700
     17 OAB         -7.5250    -2.9270     2.0700 o          1 OPZ      -0.603100
     18 CAV         -7.5660    -4.6740     3.6170 ca         1 OPZ      -0.172600
     19 CAH         -7.0760    -5.1830     4.8240 ca         1 OPZ      -0.083000
     20 CAF         -7.5200    -6.4020     5.2890 ca         1 OPZ      -0.110000
     21 CAG         -8.4510    -7.1290     4.5660 ca         1 OPZ      -0.107000
     22 CAS         -8.9460    -6.6380     3.3690 ca         1 OPZ       0.061100
     23 OAD         -9.8590    -7.3580     2.6650 oh         1 OPZ      -0.494100
     24 CAU         -8.5120    -5.4060     2.8900 ca         1 OPZ       0.177100
     25 OAE         -8.9980    -4.9190     1.7210 oh         1 OPZ      -0.458100
     26 H1          -0.6460    -0.0000    -0.8700 h4         1 OPZ       0.158000
     27 H2           1.9620     0.0010    -0.8060 hn         1 OPZ       0.120700
     28 H3           2.7960     0.0000     1.6340 h5         1 OPZ       0.022100
     29 H5          -2.4890    -0.0830     0.9400 hc         1 OPZ       0.028200
     30 H6          -2.0100     0.9290     2.3100 hc         1 OPZ       0.028200
     31 H7          -1.3520    -1.0930     3.5740 h1         1 OPZ       0.040700
     32 H8          -1.8310    -2.1050     2.2040 h1         1 OPZ       0.040700
     33 H9          -5.3760     0.5590     4.2690 h1         1 OPZ       0.035700
     34 H10         -6.9220    -1.0950     5.6320 hc         1 OPZ       0.019033
     35 H11         -5.7760    -0.0810     6.5180 hc         1 OPZ       0.019033
     36 H12         -5.3910    -1.7780     6.1960 hc         1 OPZ       0.019033
     37 H13         -6.4890    -0.8610     2.7650 h1         1 OPZ       0.088700
     38 H14         -5.7910    -3.0530     4.6560 hn         1 OPZ       0.189500
     39 H15         -6.3480    -4.6180     5.3940 ha         1 OPZ       0.103000
     40 H16         -7.1380    -6.7930     6.2240 ha         1 OPZ       0.107000
     41 H17         -8.7940    -8.0870     4.9390 ha         1 OPZ       0.113000
     42 H18         -9.4310    -8.0870     2.2480 ho         1 OPZ       0.409000
     43 H19         -9.9020    -4.6770     1.8330 ho         1 OPZ       0.410000
@<TRIPOS>BOND
     1     1     2 1   
     2     1     5 2   
     3     1    26 1   
     4     2     3 1   
     5     2    27 1   
     6     3     4 2   
     7     3    28 1   
     8     4     5 1   
     9     5     6 1   
    10     6     7 1   
    11     6    29 1   
    12     6    30 1   
    13     7     8 1   
    14     7    31 1   
    15     7    32 1   
    16     8     9 1   
    17     8    11 1   
    18     9    10 2   
    19     9    14 1   
    20    11    12 1   
    21    12    13 1   
    22    12    14 1   
    23    12    33 1   
    24    13    34 1   
    25    13    35 1   
    26    13    36 1   
    27    14    15 1   
    28    14    37 1   
    29    15    16 1   
    30    15    38 1   
    31    16    17 2   
    32    16    18 1   
    33    18    19 ar  
    34    18    24 ar  
    35    19    20 ar  
    36    19    39 1   
    37    20    21 ar  
    38    20    40 1   
    39    21    22 ar  
    40    21    41 1   
    41    22    23 1   
    42    22    24 ar  
    43    23    42 1   
    44    24    25 1   
    45    25    43 1   
@<TRIPOS>SUBSTRUCTURE
     1 OPZ         1 TEMP              0 ****  ****    0 ROOT
