@<TRIPOS>MOLECULE
molecule
   43    45     1     0     0
SMALL
bcc


@<TRIPOS>ATOM
      1 CAJ          0.0000     0.0000     0.0000 cc         1 OPZ      -0.261600
      2 NAM          1.3690     0.0000     0.0000 na         1 OPZ      -0.298900
      3 CAI          1.7680     0.0000     1.2910 cc         1 OPZ       0.396400
      4 NAO          0.7110    -0.0000     2.0550 nd         1 OPZ      -0.701000
      5 CAT         -0.3900    -0.0020     1.2890 cd         1 OPZ       0.311600
      6 CAK         -1.8140     0.0030     1.7830 c3         1 OPZ      -0.115700
      7 CAL         -2.0270    -1.1790     2.7310 c3         1 OPZ       0.149000
      8 NAY         -3.4110    -1.1740     3.2110 n          1 OPZ      -0.380300
      9 C           -4.4720    -1.5520     2.4690 c          1 OPZ       0.677500
     10 O           -4.4390    -1.9590     1.3280 o          1 OPZ      -0.585500
     11 OG1         -3.7980    -0.7800     4.5140 os         1 OPZ      -0.205900
     12 CB          -5.2090    -0.4890     4.4860 c3         1 OPZ       0.097100
     13 CG2         -5.8730    -0.8900     5.8040 c3         1 OPZ      -0.091100
     14 CA          -5.7130    -1.3710     3.3230 c3         1 OPZ       0.011700
     15 N           -6.1830    -2.6670     3.8200 ns         1 OPZ      -0.576900
     16 CAQ         -7.0940    -3.3690     3.1170 c          1 OPZ       0.673700
     17 OAB         -7.5250    -2.9270     2.0700 o          1 OPZ      -0.562100
     18 CAV         -7.5660    -4.6740     3.6170 ca         1 OPZ      -0.156600
     19 CAH         -7.0760    -5.1830     4.8240 ca         1 OPZ      -0.102000
     20 CAF         -7.5200    -6.4020     5.2890 ca         1 OPZ      -0.136000
     21 CAG         -8.4510    -7.1290     4.5660 ca         1 OPZ      -0.127000
     22 CAS         -8.9460    -6.6380     3.3690 ca         1 OPZ       0.055100
     23 OAD         -9.8590    -7.3580     2.6650 oh         1 OPZ      -0.515100
     24 CAU         -8.5120    -5.4060     2.8900 ca         1 OPZ       0.160100
     25 OAE         -8.9980    -4.9190     1.7210 oh         1 OPZ      -0.481100
     26 H1          -0.6460    -0.0000    -0.8700 h4         1 OPZ       0.180000
     27 H2           1.9620     0.0010    -0.8060 hn         1 OPZ       0.299700
     28 H3           2.7960     0.0000     1.6340 h5         1 OPZ       0.065100
     29 H5          -2.4890    -0.0830     0.9400 hc         1 OPZ       0.063200
     30 H6          -2.0100     0.9290     2.3100 hc         1 OPZ       0.063200
     31 H7          -1.3520    -1.0930     3.5740 h1         1 OPZ       0.076700
     32 H8          -1.8310    -2.1050     2.2040 h1         1 OPZ       0.076700
     33 H9          -5.3760     0.5590     4.2690 h1         1 OPZ       0.072700
     34 H10         -6.9220    -1.0950     5.6320 hc         1 OPZ       0.052033
     35 H11         -5.7760    -0.0810     6.5180 hc         1 OPZ       0.052033
     36 H12         -5.3910    -1.7780     6.1960 hc         1 OPZ       0.052033
     37 H13         -6.4890    -0.8610     2.7650 h1         1 OPZ       0.117700
     38 H14         -5.7910    -3.0530     4.6560 hn         1 OPZ       0.323500
     39 H15         -6.3480    -4.6180     5.3940 ha         1 OPZ       0.130000
     40 H16         -7.1380    -6.7930     6.2240 ha         1 OPZ       0.138000
     41 H17         -8.7940    -8.0870     4.9390 ha         1 OPZ       0.143000
     42 H18         -9.4310    -8.0870     2.2480 ho         1 OPZ       0.428000
     43 H19         -9.9020    -4.6770     1.8330 ho         1 OPZ       0.433000
@<TRIPOS>BOND
     1     2     1 1
     2     2     3 1
     3     1     5 2
     4     3     4 2
     5     5     4 1
     6     5     6 1
     7    17    16 2
     8     6     7 1
     9    11    12 1
    10    11     8 1
    11    14    12 1
    12    14     9 1
    13    14    15 1
    14    12    13 1
    15    16    15 1
    16    16    18 1
    17     8     9 1
    18     8     7 1
    19     9    10 2
    20    19    18 ar
    21    19    20 ar
    22    18    24 ar
    23    20    21 ar
    24    24    25 1
    25    24    22 ar
    26    21    22 ar
    27    22    23 1
    28     1    26 1
    29     2    27 1
    30     3    28 1
    31     6    29 1
    32     6    30 1
    33     7    31 1
    34     7    32 1
    35    12    33 1
    36    13    34 1
    37    13    35 1
    38    13    36 1
    39    14    37 1
    40    15    38 1
    41    19    39 1
    42    20    40 1
    43    21    41 1
    44    23    42 1
    45    25    43 1
@<TRIPOS>SUBSTRUCTURE
     1 OPZ         1 TEMP              0 ****  ****    0 ROOT
