@<TRIPOS>MOLECULE
molecule
   58    61     1     0     0
SMALL
bcc


@<TRIPOS>ATOM
      1 O37          0.0000     0.0000     0.0000 o          1 OQB      -0.836800
      2 C9           1.3420     0.0000     0.0000 c          1 OQB       0.886600
      3 O33          1.9470     0.0000     1.0450 o          1 OQB      -0.836800
      4 C10          2.0950    -0.0020    -1.3060 c3         1 OQB      -0.197400
      5 C27          3.5990    -0.0020    -1.0270 c3         1 OQB       0.022700
      6 C28          4.3510    -0.1260    -2.3270 c          1 OQB       0.554900
      7 O35          5.1210     0.7420    -2.6660 o          1 OQB      -0.554100
      8 N3           3.9730     1.2510    -0.3650 ns         1 OQB      -0.516900
      9 C16          5.0710     1.2990     0.4150 c          1 OQB       0.686700
     10 O34          5.7520     0.3040     0.5690 o          1 OQB      -0.631100
     11 C21          5.4490     2.5620     1.0830 ca         1 OQB      -0.231900
     12 C12          4.6790     3.7130     0.9110 ca         1 OQB       0.446200
     13 N1           5.0130     4.8380     1.5100 nb         1 OQB      -0.693000
     14 C23          6.5870     2.6260     1.8970 ca         1 OQB      -0.046000
     15 C24          6.8970     3.8320     2.4990 ca         1 OQB      -0.254300
     16 C14          6.0790     4.9270     2.2820 ca         1 OQB       0.392600
     17 C19          6.4120     6.2420     2.9360 c3         1 OQB       0.071700
     18 N6           7.1830     7.0700     2.0050 ns         1 OQB      -0.573900
     19 C15          7.5960     8.2980     2.3770 c          1 OQB       0.674700
     20 O36          7.3270     8.7200     3.4850 o          1 OQB      -0.619100
     21 C20          8.3730     9.1310     1.4390 ca         1 OQB      -0.162600
     22 C22          8.8000    10.4050     1.8230 ca         1 OQB      -0.068000
     23 C26          8.6880     8.6460     0.1680 ca         1 OQB      -0.068000
     24 C25          9.4080     9.4270    -0.7070 ca         1 OQB      -0.158000
     25 C11          9.8320    10.6960    -0.3210 ca         1 OQB       0.168600
     26 C8           9.5250    11.1790     0.9470 ca         1 OQB      -0.158000
     27 N2          10.5650    11.4810    -1.2060 nu         1 OQB      -0.765300
     28 C13         11.5410    12.3420    -0.7230 ca         1 OQB       0.573900
     29 C29         12.1940    13.2200    -1.6070 ca         1 OQB       0.267900
     30 N4          13.1190    14.0400    -1.1700 nb         1 OQB      -0.612000
     31 N5          11.8450    12.3350     0.5600 nb         1 OQB      -0.714000
     32 C32         12.7910    13.1620     1.0220 ca         1 OQB       0.364300
     33 C31         13.4460    14.0450     0.1290 ca         1 OQB       0.255300
     34 C17         13.1410    13.1730     2.3820 ca         1 OQB      -0.173300
     35 C30         14.1020    14.0300     2.8250 ca         1 OQB      -0.117000
     36 C18         14.7470    14.8980     1.9470 ca         1 OQB      -0.150000
     37 C7          14.4340    14.9140     0.6220 ca         1 OQB      -0.140300
     38 H101         1.8330    -0.8870    -1.8730 hc         1 OQB       0.042200
     39 H102         1.8330     0.8820    -1.8750 hc         1 OQB       0.042200
     40 H27          3.8480    -0.8380    -0.3850 h1         1 OQB       0.115700
     41 H28          4.2220    -1.0060    -2.9450 h4         1 OQB      -0.018800
     42 HN3          3.4390     2.0820    -0.5270 hn         1 OQB       0.317500
     43 H12          3.7960     3.6800     0.2850 h4         1 OQB       0.036100
     44 H23          7.2090     1.7530     2.0490 ha         1 OQB       0.163000
     45 H24          7.7700     3.9180     3.1350 ha         1 OQB       0.136000
     46 H191         6.9980     6.0630     3.8300 h1         1 OQB       0.065700
     47 H192         5.4960     6.7560     3.2020 h1         1 OQB       0.065700
     48 HN6          7.3930     6.7280     1.0880 hn         1 OQB       0.319500
     49 H22          8.5170    10.8030     2.7900 ha         1 OQB       0.146500
     50 H26          8.3360     7.6690    -0.1420 ha         1 OQB       0.146500
     51 H25          9.6460     9.0540    -1.6960 ha         1 OQB       0.144500
     52 H8           9.8230    12.1810     1.2300 ha         1 OQB       0.144500
     53 HN2         10.3620    11.4540    -2.1860 hn         1 OQB       0.457800
     54 H29         11.9310    13.2190    -2.6580 h4         1 OQB       0.027100
     55 H17         12.7910    12.5390     3.1880 ha         1 OQB       0.152000
     56 H30         14.3890    14.0590     3.8690 ha         1 OQB       0.133000
     57 H18         15.5070    15.5650     2.3360 ha         1 OQB       0.131000
     58 H7          14.9780    15.6200     0.0060 ha         1 OQB       0.144000
@<TRIPOS>BOND
     1     1     2 1
     2     2     3 1
     3     2     4 1
     4     4     5 1
     5     4    38 1
     6     4    39 1
     7     5     6 1
     8     5     8 1
     9     5    40 1
    10     6     7 2
    11     6    41 1
    12     8     9 1
    13     8    42 1
    14     9    10 2
    15     9    11 1
    16    11    12 ar
    17    11    14 ar
    18    12    13 ar
    19    12    43 1
    20    13    16 ar
    21    14    15 ar
    22    14    44 1
    23    15    16 ar
    24    15    45 1
    25    16    17 1
    26    17    18 1
    27    17    46 1
    28    17    47 1
    29    18    19 1
    30    18    48 1
    31    19    20 2
    32    19    21 1
    33    21    22 ar
    34    21    23 ar
    35    22    26 ar
    36    22    49 1
    37    23    24 ar
    38    23    50 1
    39    24    25 ar
    40    24    51 1
    41    25    26 ar
    42    25    27 1
    43    26    52 1
    44    27    28 1
    45    27    53 1
    46    28    29 ar
    47    28    31 ar
    48    29    30 ar
    49    29    54 1
    50    30    33 ar
    51    31    32 ar
    52    32    33 ar
    53    32    34 ar
    54    33    37 ar
    55    34    35 ar
    56    34    55 1
    57    35    36 ar
    58    35    56 1
    59    36    37 ar
    60    36    57 1
    61    37    58 1
@<TRIPOS>SUBSTRUCTURE
     1 OQB         1 TEMP              0 ****  ****    0 ROOT
