@<TRIPOS>MOLECULE
molecule
   41    42     1     0     0
SMALL
bcc


@<TRIPOS>ATOM
      1 C8           0.0000     0.0000     0.0000 c3         1 OQR      -0.086400
      2 C9           1.5290     0.0000     0.0000 c3         1 OQR      -0.033100
      3 C6           2.0560     0.0000     1.4110 ca         1 OQR      -0.107300
      4 C1           3.3530     0.4250     1.6410 ca         1 OQR      -0.080000
      5 C2           3.8670     0.4340     2.9230 ca         1 OQR      -0.069300
      6 C10          5.2800     0.8990     3.1630 c3         1 OQR       0.186700
      7 O3           5.8750     1.2760     1.9210 oh         1 OQR      -0.625800
      8 C3           3.0880     0.0170     3.9860 ca         1 OQR      -0.126200
      9 N2           3.6410     0.0270     5.3590 no         1 OQR       0.295200
     10 O1           2.9540    -0.3410     6.2950 o          1 OQR      -0.213500
     11 O2           4.7840     0.4020     5.5530 o          1 OQR      -0.213500
     12 C4           1.7930    -0.4080     3.7660 ca         1 OQR      -0.130000
     13 C5           1.2740    -0.4160     2.4770 ca         1 OQR       0.148600
     14 N1          -0.0440    -0.8440     2.2760 nu         1 OQR      -0.720600
     15 C7          -0.4980    -1.1340     0.9060 c3         1 OQR       0.199500
     16 C11         -2.0270    -1.1960     0.8700 c3         1 OQR       0.157800
     17 N3          -2.5000    -2.1730     1.8590 n7         1 OQR      -0.819200
     18 C14         -3.9670    -2.2610     1.8530 c3         1 OQR       0.160500
     19 C12         -4.4150    -3.2410     0.7670 c3         1 OQR      -0.105600
     20 C13         -4.4540    -2.7530     3.2170 c3         1 OQR      -0.105600
     21 H1          -0.3510    -0.1780    -1.0090 hc         1 OQR       0.060200
     22 H2          -0.3510     0.9450     0.3960 hc         1 OQR       0.060200
     23 H3           1.8740     0.8980    -0.4980 hc         1 OQR       0.060200
     24 H4           1.8740    -0.8980    -0.4980 hc         1 OQR       0.060200
     25 H5           3.9680     0.7520     0.8110 ha         1 OQR       0.168000
     26 H6           5.2710     1.7520     3.8320 h1         1 OQR       0.056200
     27 H7           5.8540     0.0960     3.6100 h1         1 OQR       0.056200
     28 H8           6.7590     1.5680     2.0710 ho         1 OQR       0.412000
     29 H9           1.1820    -0.7350     4.5990 ha         1 OQR       0.169000
     30 H10         -0.3120    -1.5660     2.9140 hn         1 OQR       0.414800
     31 H11         -0.0800    -2.0770     0.5750 h1         1 OQR       0.031700
     32 H12         -2.3530    -1.4960    -0.1180 h1         1 OQR       0.045200
     33 H13         -2.4340    -0.2200     1.1040 h1         1 OQR       0.045200
     34 H14         -2.1120    -3.0720     1.6530 hn         1 OQR       0.349800
     35 H16         -4.3860    -1.2820     1.6510 h1         1 OQR       0.060700
     36 H17         -4.1860    -2.8290    -0.2080 hc         1 OQR       0.039033
     37 H18         -5.4820    -3.4060     0.8480 hc         1 OQR       0.039033
     38 H19         -3.8930    -4.1820     0.8930 hc         1 OQR       0.039033
     39 H20         -4.1750    -2.0360     3.9800 hc         1 OQR       0.039033
     40 H21         -5.5320    -2.8590     3.1990 hc         1 OQR       0.039033
     41 H22         -4.0000    -3.7110     3.4380 hc         1 OQR       0.039033
@<TRIPOS>BOND
     1    11     9 1
     2    10     9 1
     3     9     8 1
     4     6     5 1
     5     6     7 1
     6     8     5 ar
     7     8    12 ar
     8     5     4 ar
     9    12    13 ar
    10     4     3 ar
    11    13     3 ar
    12    13    14 1
    13     3     2 1
    14    14    15 1
    15     2     1 1
    16    15    16 1
    17    15     1 1
    18    17    16 1
    19    17    18 1
    20    20    18 1
    21    18    19 1
    22     1    21 1
    23     1    22 1
    24     2    23 1
    25     2    24 1
    26     4    25 1
    27     6    26 1
    28     6    27 1
    29     7    28 1
    30    12    29 1
    31    14    30 1
    32    15    31 1
    33    16    32 1
    34    16    33 1
    35    17    34 1
    36    18    35 1
    37    19    36 1
    38    19    37 1
    39    19    38 1
    40    20    39 1
    41    20    40 1
    42    20    41 1
@<TRIPOS>SUBSTRUCTURE
     1 OQR         1 TEMP              0 ****  ****    0 ROOT
