@<TRIPOS>MOLECULE
molecule
   25    24     1     0     0
SMALL
bcc


@<TRIPOS>ATOM
      1 C1'          0.0000     0.0000     0.0000 c3         1 OR5       0.099400
      2 O1'         -0.4760    -1.2220     0.5700 oh         1 OR5      -0.625800
      3 C2'          1.5300     0.0000     0.0000 c3         1 OR5       0.141100
      4 O2'          2.0070     0.0000     1.3470 oh         1 OR5      -0.569800
      5 C3'          2.0400     1.2500    -0.7210 c3         1 OR5       0.148100
      6 O3'          1.5630     1.2500    -2.0680 oh         1 OR5      -0.602800
      7 C4'          3.5700     1.2500    -0.7210 c3         1 OR5       0.136100
      8 O4'          4.0450     1.2500     0.6270 oh         1 OR5      -0.606800
      9 C5'          4.0800     2.4990    -1.4410 c3         1 OR5       0.138400
     10 O5'          5.5040     2.4430    -1.5440 os         1 OR5      -0.544200
     11 P            5.9680     3.7810    -2.3090 p5         1 OR5       1.157900
     12 O1P          5.2540     3.8850    -3.6000 o          1 OR5      -0.912167
     13 O2P          5.6240     5.0650    -1.4000 o          1 OR5      -0.912167
     14 O3P          7.5560     3.7230    -2.5760 o          1 OR5      -0.912167
     15 H1'1        -0.3610     0.8370     0.5860 h1         1 OR5       0.028200
     16 H1'2        -0.3610     0.0890    -1.0170 h1         1 OR5       0.028200
     17 HO'1        -1.4170    -1.2500     0.5120 ho         1 OR5       0.385000
     18 H2'          1.8910    -0.8840    -0.5110 h1         1 OR5       0.043700
     19 HO'2         2.0340    -0.8850     1.6710 ho         1 OR5       0.388000
     20 H3'          1.6790     2.1340    -0.2100 h1         1 OR5       0.053700
     21 HO'3         1.0250     2.0110    -2.2110 ho         1 OR5       0.402000
     22 H4'          3.9320     0.3660    -1.2320 h1         1 OR5       0.029700
     23 HO'4         4.8890     0.8300     0.6630 ho         1 OR5       0.406000
     24 H5'1         3.6470     2.5460    -2.4330 h1         1 OR5       0.049700
     25 H5'2         3.7930     3.3810    -0.8810 h1         1 OR5       0.049700
@<TRIPOS>BOND
     1     1     2 1
     2     1     3 1
     3     1    15 1
     4     1    16 1
     5     2    17 1
     6     3     4 1
     7     3     5 1
     8     3    18 1
     9     4    19 1
    10     5     6 1
    11     5     7 1
    12     5    20 1
    13     6    21 1
    14     7     8 1
    15     7     9 1
    16     7    22 1
    17     8    23 1
    18     9    10 1
    19     9    24 1
    20     9    25 1
    21    10    11 1
    22    11    12 1
    23    11    13 1
    24    11    14 1
@<TRIPOS>SUBSTRUCTURE
     1 OR5         1 TEMP              0 ****  ****    0 ROOT
