@<TRIPOS>MOLECULE
OR5
   25    24     1     0     0
SMALL
bcc


@<TRIPOS>ATOM
      1 C1'         0.1580    0.7260    0.1220 c3        1 OR5      0.117400
      2 O1'        -0.4060    0.0980    1.2630 oh        1 OR5     -0.652800
      3 C2'         1.6290    0.3330   -0.0810 c3        1 OR5      0.148100
      4 O2'         2.2780    0.4680    1.1690 oh        1 OR5     -0.675800
      5 C3'         2.2700    1.1950   -1.1710 c3        1 OR5      0.044100
      6 O3'         1.3230    1.3840   -2.2210 oh        1 OR5     -0.647800
      7 C4'         3.5580    0.5610   -1.7420 c3        1 OR5      0.097100
      8 O4'         4.2920   -0.0520   -0.7040 oh        1 OR5     -0.655800
      9 C5'         4.4000    1.6710   -2.4350 c3        1 OR5      0.194400
     10 O5'         5.3480    2.2190   -1.6090 os        1 OR5     -0.573200
     11 P           4.8210    3.4840   -0.5450 p5        1 OR5      1.330900
     12 O1P         3.6980    4.1090   -1.3290 o         1 OR5     -0.928167
     13 O2P         4.3120    2.5640    0.5500 o         1 OR5     -0.928167
     14 O3P         6.0470    4.2980   -0.2810 o         1 OR5     -0.928167
     15 H1'1       -0.4610    0.3880   -0.7480 h1        1 OR5      0.036200
     16 H1'2        0.0740    1.8380    0.2370 h1        1 OR5      0.036200
     17 HO'1        0.2750    0.1160    1.9490 ho        1 OR5      0.416000
     18 H2'         1.6910   -0.7570   -0.3550 h1        1 OR5      0.029700
     19 HO'2        2.9970    1.1350    1.0880 ho        1 OR5      0.501000
     20 H3'         2.5730    2.2030   -0.7200 h1        1 OR5      0.153700
     21 HO'3        1.5700    2.2280   -2.6220 ho        1 OR5      0.416000
     22 H4'         3.2990   -0.2570   -2.4640 h1        1 OR5      0.013700
     23 HO'4        4.6810    0.6930   -0.1860 ho        1 OR5      0.474000
     24 H5'1        4.9280    1.1900   -3.3110 h1        1 OR5     -0.009800
     25 H5'2        3.7060    2.4690   -2.8230 h1        1 OR5     -0.009800
@<TRIPOS>BOND
     1    1    2 1   
     2    1    3 1   
     3    1   15 1   
     4    1   16 1   
     5    2   17 1   
     6    3    4 1   
     7    3    5 1   
     8    3   18 1   
     9    4   19 1   
    10    5    6 1   
    11    5    7 1   
    12    5   20 1   
    13    6   21 1   
    14    7    8 1   
    15    7    9 1   
    16    7   22 1   
    17    8   23 1   
    18    9   10 1   
    19    9   24 1   
    20    9   25 1   
    21   10   11 1   
    22   11   12 1   
    23   11   13 1   
    24   11   14 1   
@<TRIPOS>SUBSTRUCTURE
     1 OR5         1 TEMP              0 ****  ****    0 ROOT
