@<TRIPOS>MOLECULE
OR8
   46    48     1     0     0
SMALL
bcc


@<TRIPOS>ATOM
      1 CL          0.2440   -1.3550   -1.5180 cl        1 OR8      0.076600
      2 C18         1.4590   -0.6110   -0.6600 cc        1 OR8      0.143100
      3 N19         1.4340   -0.3690    0.6960 na        1 OR8      0.166400
      4 C26         0.3550   -0.7520    1.5920 c3        1 OR8      0.007600
      5 N20         2.5620    0.2530    1.1140 nc        1 OR8     -0.462800
      6 C21         3.3590    0.4310    0.0400 cd        1 OR8      0.470600
      7 C24         4.6980    1.0540    0.0700 c3        1 OR8     -0.164400
      8 C15         2.7090   -0.1090   -1.1730 cd        1 OR8     -0.761800
      9 S14         3.3490   -0.1940   -2.6010 sy        1 OR8      1.535200
     10 O16         4.7150    0.0010   -2.6440 o         1 OR8     -0.580800
     11 O17         2.7350   -1.0600   -3.4840 o         1 OR8     -0.580800
     12 N13         2.6890    1.4750   -3.2880 n4        1 OR8     -0.703900
     13 C12         3.7540    2.3230   -3.8880 c3        1 OR8      0.178100
     14 C5          3.2180    3.5810   -4.4800 ca        1 OR8     -0.186300
     15 C6          3.3010    4.7860   -3.7740 ca        1 OR8     -0.098500
     16 C1          2.8250    5.9630   -4.3420 ca        1 OR8     -0.124500
     17 C4          2.6610    3.5670   -5.7640 ca        1 OR8     -0.098500
     18 C3          2.1850    4.7430   -6.3320 ca        1 OR8     -0.124500
     19 C2          2.2550    5.9580   -5.6270 ca        1 OR8      0.063000
     20 C7          1.7630    7.1700   -6.2240 cc        1 OR8     -0.323600
     21 C11         1.7950    7.5420   -7.5650 cd        1 OR8      0.315000
     22 C22         2.2870    6.9500   -8.8080 c3        1 OR8     -0.153400
     23 O10         1.2010    8.8150   -7.6670 os        1 OR8     -0.100100
     24 N9          0.8020    9.2320   -6.4820 nd        1 OR8     -0.342300
     25 C8          1.1050    8.3030   -5.5530 cc        1 OR8      0.342600
     26 C23         0.8080    8.4120   -4.1120 c3        1 OR8     -0.137400
     27 H261       -0.6040   -0.3040    1.2160 h1        1 OR8      0.096367
     28 H262        0.2760   -1.8730    1.6060 h1        1 OR8      0.096367
     29 H263        0.5650   -0.3790    2.6310 h1        1 OR8      0.096367
     30 H241        4.9630    1.4220    1.0940 hc        1 OR8      0.087033
     31 H242        5.4690    0.3030   -0.2500 hc        1 OR8      0.087033
     32 H243        4.7320    1.9170   -0.6420 hc        1 OR8      0.087033
     33 H13         2.2200    2.0110   -2.5630 hn        1 OR8      0.442300
     34 H121        4.5070    2.5510   -3.0770 hx        1 OR8      0.105200
     35 H122        4.2720    1.7060   -4.6810 hx        1 OR8      0.105200
     36 H6          3.7600    4.8130   -2.7740 ha        1 OR8      0.136000
     37 H4          2.6110    2.6270   -6.3360 ha        1 OR8      0.136000
     38 H1          2.9120    6.9120   -3.7880 ha        1 OR8      0.156500
     39 H3          1.7480    4.7280   -7.3440 ha        1 OR8      0.156500
     40 H221        3.1600    6.2840   -8.5960 hc        1 OR8      0.076033
     41 H222        1.4750    6.3430   -9.2870 hc        1 OR8      0.076033
     42 H223        2.5990    7.7480   -9.5280 hc        1 OR8      0.076033
     43 H231       -0.0950    9.0480   -3.9280 hc        1 OR8      0.061700
     44 H232        0.6230    7.3950   -3.6850 hc        1 OR8      0.061700
     45 H233        1.6770    8.8770   -3.5800 hc        1 OR8      0.061700
     46 H132        1.9940    1.2840   -4.0110 hn        1 OR8      0.442300
@<TRIPOS>BOND
     1    1    2 1
     2    2    3 1
     3    2    8 2
     4    3    4 1
     5    3    5 1
     6    4   27 1
     7    4   28 1
     8    4   29 1
     9    5    6 2
    10    6    7 1
    11    6    8 1
    12    7   30 1
    13    7   31 1
    14    7   32 1
    15    8    9 1
    16    9   10 2
    17    9   11 2
    18    9   12 1
    19   12   13 1
    20   12   33 1
    21   12   46 1
    22   13   14 1
    23   13   34 1
    24   13   35 1
    25   14   15 ar
    26   14   17 ar
    27   15   16 ar
    28   15   36 1
    29   16   19 ar
    30   16   38 1
    31   17   18 ar
    32   17   37 1
    33   18   19 ar
    34   18   39 1
    35   19   20 1
    36   20   21 2
    37   20   25 1
    38   21   22 1
    39   21   23 1
    40   22   40 1
    41   22   41 1
    42   22   42 1
    43   23   24 1
    44   24   25 2
    45   25   26 1
    46   26   43 1
    47   26   44 1
    48   26   45 1
@<TRIPOS>SUBSTRUCTURE
     1 OR8         1 TEMP              0 ****  ****    0 ROOT
