@<TRIPOS>MOLECULE
molecule
   37    39     1     0     0
SMALL
bcc


@<TRIPOS>ATOM
      1 C1           0.0000     0.0000     0.0000 ca         1 ORA      -0.153000
      2 N1           2.0560    -0.0000     3.5890 ne         1 ORA      -0.260400
      3 O1          -1.0890     0.2320    11.6470 o          1 ORA      -0.720533
      4 S1          -0.7330    -1.1330    11.0760 s6         1 ORA       1.333100
      5 C2           1.3830     0.0000     0.0000 ca         1 ORA      -0.163000
      6 N2           1.4140    -0.1170     4.7000 nf         1 ORA      -0.093400
      7 O2          -0.4270    -1.5480     4.7520 o          1 ORA      -0.716867
      8 S2          -0.9490    -0.4710     5.6910 s6         1 ORA       1.352100
      9 C3          -0.7000     0.0010     1.1940 ca         1 ORA      -0.163000
     10 O3           0.2200    -1.7040    11.9630 o          1 ORA      -0.720533
     11 C4           3.5340    -0.3700     8.2900 ca         1 ORA      -0.059000
     12 O4          -1.9650    -1.7630    10.7500 o          1 ORA      -0.720533
     13 C5           2.0760     0.0000     1.1930 ca         1 ORA      -0.089500
     14 O5          -0.6250     0.7750     5.0910 o          1 ORA      -0.716867
     15 C6          -0.0210     0.0020     2.3950 ca         1 ORA      -0.089500
     16 O6          -2.2760    -0.8470     6.0340 o          1 ORA      -0.716867
     17 C7           4.1760    -0.1590     7.1110 ca         1 ORA      -0.258000
     18 O7           4.1670     0.1400     4.7490 oh         1 ORA      -0.472100
     19 C8           1.4620    -0.7270     9.5470 ca         1 ORA      -0.003000
     20 C9          -0.6260    -0.7800     8.3710 ca         1 ORA       0.066000
     21 C10          2.1350    -0.5090     8.3340 ca         1 ORA      -0.111000
     22 C11          1.3860    -0.4280     7.1340 ca         1 ORA       0.131000
     23 C12          1.3770     0.0010     2.4030 ca         1 ORA       0.145400
     24 C13          2.0940    -0.2010     5.8740 ca         1 ORA       0.085400
     25 C14          3.4840    -0.0720     5.9030 ca         1 ORA       0.121100
     26 C15          0.1060    -0.8600     9.5520 ca         1 ORA      -0.290500
     27 C16         -0.0040    -0.5680     7.1760 ca         1 ORA      -0.288500
     28 H1          -0.5390    -0.0000    -0.9400 ha         1 ORA       0.094000
     29 H2           1.9240    -0.0010    -0.9390 ha         1 ORA       0.107500
     30 H3          -1.7830     0.0020     1.1850 ha         1 ORA       0.107500
     31 H4           4.1890    -0.4200     9.1510 ha         1 ORA       0.111000
     32 H5           3.1600     0.0000     1.1920 ha         1 ORA       0.172000
     33 H6          -0.5700     0.0030     3.3290 ha         1 ORA       0.172000
     34 H7           5.2560    -0.1300     7.1930 ha         1 ORA       0.103000
     35 HO7          4.8560     0.7650     4.9020 ho         1 ORA       0.391000
     36 H8           2.0060    -0.6880    10.4830 ha         1 ORA       0.137000
     37 H9          -1.7040    -0.8880     8.4010 ha         1 ORA       0.178000
@<TRIPOS>BOND
     1     1     5 ar
     2     1     9 ar
     3     1    28 1
     4     2     6 2
     5     2    23 1
     6     3     4 1
     7     4    10 1
     8     4    12 1
     9     4    26 1
    10     5    13 ar
    11     5    29 1
    12     6    24 1
    13     7     8 1
    14     8    14 1
    15     8    16 1
    16     8    27 1
    17     9    15 ar
    18     9    30 1
    19    11    17 ar
    20    11    21 ar
    21    11    31 1
    22    13    23 ar
    23    13    32 1
    24    15    23 ar
    25    15    33 1
    26    17    25 ar
    27    17    34 1
    28    18    25 1
    29    18    35 1
    30    19    21 ar
    31    19    26 ar
    32    19    36 1
    33    20    26 ar
    34    20    27 ar
    35    20    37 1
    36    21    22 ar
    37    22    24 ar
    38    22    27 ar
    39    24    25 ar
@<TRIPOS>SUBSTRUCTURE
     1 ORA         1 TEMP              0 ****  ****    0 ROOT
