@<TRIPOS>MOLECULE
ORB
   45    47     1     0     0
SMALL
bcc


@<TRIPOS>ATOM
      1 F2         -0.2600    0.5470    0.9430 f         1 ORB     -0.112900
      2 C2          1.0000    0.1140    0.7330 ca        1 ORB      0.018600
      3 C3          1.9950    0.2810    1.7080 ca        1 ORB     -0.115000
      4 C4          3.2900   -0.1890    1.4470 cp        1 ORB     -0.152300
      5 C5          3.5380   -0.8010    0.1940 ca        1 ORB      0.493300
      6 CL2         5.1120   -1.3530   -0.1820 cl        1 ORB     -0.126000
      7 N6          2.5810   -0.9650   -0.7540 nb        1 ORB     -0.621000
      8 C1          1.3470   -0.5240   -0.4920 ca        1 ORB      0.401200
      9 C7          4.3270   -0.0270    2.4640 cp        1 ORB      0.012000
     10 C12         4.9860   -1.1420    3.0010 ca        1 ORB     -0.101000
     11 C11         5.9680   -0.9760    3.9760 ca        1 ORB     -0.105000
     12 C10         6.3080    0.3080    4.4170 ca        1 ORB     -0.176300
     13 C9          5.6460    1.4230    3.8900 ca        1 ORB     -0.105000
     14 C8          4.6580    1.2570    2.9240 ca        1 ORB     -0.101000
     15 C13         7.4080    0.4720    5.4240 c3        1 ORB      0.193800
     16 C25         8.4910    1.4140    4.9130 c3        1 ORB     -0.124100
     17 N14         6.8460    0.9290    6.7460 n4        1 ORB     -0.714900
     18 S15         6.1910   -0.4610    7.8590 sy        1 ORB      1.531200
     19 O16         4.8440   -0.1480    7.9070 o         1 ORB     -0.577800
     20 O17         6.6470   -1.6080    7.2450 o         1 ORB     -0.577800
     21 C18         6.9710   -0.0510    9.1750 cc        1 ORB     -0.831100
     22 C22         6.5150    0.5620   10.3660 cd        1 ORB      0.535000
     23 C24         5.2250    1.0890   10.8030 c3        1 ORB     -0.212400
     24 O21         7.5730    0.6190   11.2530 os        1 ORB     -0.064100
     25 N20         8.6690    0.0840   10.7250 nd        1 ORB     -0.304300
     26 C19         8.3960   -0.3480    9.4860 cc        1 ORB      0.428600
     27 C23         9.3320   -1.0250    8.5670 c3        1 ORB     -0.173400
     28 H3          1.7570    0.7690    2.6650 ha        1 ORB      0.161000
     29 H1          0.5900   -0.6760   -1.2840 h4        1 ORB      0.059100
     30 H12         4.7300   -2.1550    2.6490 ha        1 ORB      0.163000
     31 H8          4.1410    2.1360    2.5070 ha        1 ORB      0.163000
     32 H11         6.4750   -1.8610    4.3950 ha        1 ORB      0.144000
     33 H9          5.9120    2.4390    4.2200 ha        1 ORB      0.144000
     34 H13         7.8890   -0.5390    5.6240 hx        1 ORB      0.113700
     35 H251        9.3530    1.4580    5.6230 hc        1 ORB      0.073367
     36 H252        8.0990    2.4460    4.7470 hc        1 ORB      0.073367
     37 H253        8.8620    1.0210    3.9330 hc        1 ORB      0.073367
     38 H14         6.0780    1.5750    6.5490 hn        1 ORB      0.447300
     39 H241        5.3160    2.1830   11.0430 hc        1 ORB      0.118367
     40 H242        4.9010    0.5660   11.7450 hc        1 ORB      0.118367
     41 H243        4.4400    0.9420   10.0150 hc        1 ORB      0.118367
     42 H231        8.8920   -1.9990    8.2250 hc        1 ORB      0.088367
     43 H232       10.3150   -1.2370    9.0630 hc        1 ORB      0.088367
     44 H233        9.5230   -0.3780    7.6740 hc        1 ORB      0.088367
     45 H142        7.5690    1.4590    7.2280 hn        1 ORB      0.447300
@<TRIPOS>BOND
     1    1    2 1   
     2    2    3 ar  
     3    2    8 ar  
     4    3    4 ar  
     5    3   28 1   
     6    4    5 ar  
     7    4    9 1   
     8    5    6 1   
     9    5    7 ar  
    10    7    8 ar  
    11    8   29 1   
    12    9   10 ar  
    13    9   14 ar  
    14   10   11 ar  
    15   10   30 1   
    16   11   12 ar  
    17   11   32 1   
    18   12   13 ar  
    19   12   15 1   
    20   13   14 ar  
    21   13   33 1   
    22   14   31 1   
    23   15   16 1   
    24   15   17 1   
    25   15   34 1   
    26   16   35 1   
    27   16   36 1   
    28   16   37 1   
    29   17   18 1   
    30   17   38 1   
    31   17   45 1   
    32   18   19 2   
    33   18   20 2   
    34   18   21 1   
    35   21   22 2   
    36   21   26 1   
    37   22   23 1   
    38   22   24 1   
    39   23   39 1   
    40   23   40 1   
    41   23   41 1   
    42   24   25 1   
    43   25   26 2   
    44   26   27 1   
    45   27   42 1   
    46   27   43 1   
    47   27   44 1   
@<TRIPOS>SUBSTRUCTURE
     1 ORB         1 TEMP              0 ****  ****    0 ROOT
