@<TRIPOS>MOLECULE
ORC
   48    50     1     0     0
SMALL
bcc


@<TRIPOS>ATOM
      1 O13        -0.1660    0.3620   -1.9970 o         1 ORC     -0.577800
      2 S10         0.8320    0.3060   -1.0410 sy        1 ORC      1.530200
      3 O11         0.8490    1.1590    0.0440 o         1 ORC     -0.577800
      4 C12         1.3110   -1.1730   -0.7340 cc        1 ORC     -0.828100
      5 C17         2.2330   -1.6000    0.3540 cc        1 ORC      0.429600
      6 C19         2.9130   -0.6850    1.2920 c3        1 ORC     -0.174400
      7 N16         2.3250   -2.9370    0.3440 nd        1 ORC     -0.305300
      8 O15         1.5550   -3.4220   -0.6240 os        1 ORC     -0.064100
      9 C14         0.9150   -2.4050   -1.3050 cd        1 ORC      0.532000
     10 C18         0.0070   -2.7740   -2.3890 c3        1 ORC     -0.211400
     11 N8          2.3840    0.8820   -1.9600 n4        1 ORC     -0.715900
     12 C7          2.1190    1.5760   -3.2730 c3        1 ORC      0.198800
     13 C9          3.3000    1.4470   -4.2290 c3        1 ORC     -0.124100
     14 C5          1.7620    3.0140   -3.0380 ca        1 ORC     -0.193300
     15 C6          0.4540    3.4460   -3.2850 ca        1 ORC     -0.097500
     16 C1          0.1170    4.7850   -3.1190 ca        1 ORC     -0.122500
     17 C4          2.7250    3.9340   -2.6070 ca        1 ORC     -0.097500
     18 C3          2.3860    5.2710   -2.4350 ca        1 ORC     -0.122500
     19 C2          1.0780    5.7190   -2.6970 ca        1 ORC      0.067000
     20 C20         0.7400    7.1060   -2.5240 cc        1 ORC     -0.323600
     21 C24         1.2320    8.0010   -1.5790 cd        1 ORC      0.312000
     22 C26         2.1870    7.9430   -0.4740 c3        1 ORC     -0.152400
     23 O23         0.6010    9.2400   -1.8000 os        1 ORC     -0.100100
     24 N22        -0.2260    9.1600   -2.8230 nd        1 ORC     -0.341300
     25 C21        -0.2080    7.9060   -3.3190 cc        1 ORC      0.346600
     26 C25        -0.9940    7.4350   -4.4750 c3        1 ORC     -0.140400
     27 H8          2.8870    1.5410   -1.3610 hn        1 ORC      0.446300
     28 H191        3.7020   -0.1040    0.7510 hc        1 ORC      0.089367
     29 H192        2.1710    0.0290    1.7370 hc        1 ORC      0.089367
     30 H193        3.4050   -1.2470    2.1280 hc        1 ORC      0.089367
     31 H181       -0.5190   -1.8730   -2.7990 hc        1 ORC      0.117033
     32 H182        0.5770   -3.2830   -3.2120 hc        1 ORC      0.117033
     33 H183       -0.7600   -3.5050   -2.0110 hc        1 ORC      0.117033
     34 H7          1.2310    1.0380   -3.7350 hx        1 ORC      0.110700
     35 H91C        3.5100    0.3770   -4.4700 hc        1 ORC      0.072367
     36 H92C        4.2230    1.9170   -3.8120 hc        1 ORC      0.072367
     37 H93C        3.0380    1.9780   -5.1790 hc        1 ORC      0.072367
     38 H6         -0.3160    2.7260   -3.6110 ha        1 ORC      0.140500
     39 H4          3.7610    3.6120   -2.4190 ha        1 ORC      0.140500
     40 H1         -0.9170    5.1160   -3.3110 ha        1 ORC      0.157500
     41 H3          3.1490    5.9940   -2.1020 ha        1 ORC      0.157500
     42 H261        3.2120    8.2030   -0.8450 hc        1 ORC      0.074367
     43 H262        1.9070    8.6750    0.3270 hc        1 ORC      0.074367
     44 H263        2.2090    6.9130   -0.0390 hc        1 ORC      0.074367
     45 H251       -1.9710    7.0160   -4.1240 hc        1 ORC      0.064033
     46 H252       -0.4290    6.6370   -5.0180 hc        1 ORC      0.064033
     47 H253       -1.2090    8.2700   -5.1890 hc        1 ORC      0.064033
     48 H82         3.0110    0.1000   -2.1380 hn        1 ORC      0.446300
@<TRIPOS>BOND
     1    1    2 2   
     2    2    3 2   
     3    2    4 1   
     4    2   11 1   
     5    4    5 1   
     6    4    9 2   
     7    5    6 1   
     8    5    7 2   
     9    6   28 1   
    10    6   29 1   
    11    6   30 1   
    12    7    8 1   
    13    8    9 1   
    14    9   10 1   
    15   10   31 1   
    16   10   32 1   
    17   10   33 1   
    18   11   12 1   
    19   11   27 1   
    20   11   48 1   
    21   12   13 1   
    22   12   14 1   
    23   12   34 1   
    24   13   35 1   
    25   13   36 1   
    26   13   37 1   
    27   14   15 ar  
    28   14   17 ar  
    29   15   16 ar  
    30   15   38 1   
    31   16   19 ar  
    32   16   40 1   
    33   17   18 ar  
    34   17   39 1   
    35   18   19 ar  
    36   18   41 1   
    37   19   20 1   
    38   20   21 2   
    39   20   25 1   
    40   21   22 1   
    41   21   23 1   
    42   22   42 1   
    43   22   43 1   
    44   22   44 1   
    45   23   24 1   
    46   24   25 2   
    47   25   26 1   
    48   26   45 1   
    49   26   46 1   
    50   26   47 1   
@<TRIPOS>SUBSTRUCTURE
     1 ORC         1 TEMP              0 ****  ****    0 ROOT
