@<TRIPOS>MOLECULE
ORE
   38    41     1     0     0
SMALL
bcc


@<TRIPOS>ATOM
      1 O7          0.1460    0.0660    0.1770 o         1 ORE     -0.840800
      2 C21         1.4000   -0.0480    0.0790 c         1 ORE      0.904200
      3 O6          2.1670   -0.1480    1.0830 o         1 ORE     -0.840800
      4 C17         2.0310   -0.0600   -1.3040 ca        1 ORE     -0.103600
      5 C18         1.2750    0.1080   -2.4620 ca        1 ORE     -0.100000
      6 C19         1.8710    0.1260   -3.7320 ca        1 ORE     -0.084600
      7 C20         0.9830    0.3040   -4.9550 c         1 ORE      0.902200
      8 O5          0.6840    1.4890   -5.2940 o         1 ORE     -0.831800
      9 O4          0.5930   -0.7200   -5.5780 o         1 ORE     -0.831800
     10 C16         3.4190   -0.2420   -1.4200 ca        1 ORE     -0.134000
     11 C15         4.0240   -0.2440   -2.6650 ca        1 ORE     -0.150000
     12 C14         3.2610   -0.0370   -3.8350 ca        1 ORE     -0.147000
     13 C10         3.9870   -0.0100   -5.1000 cc        1 ORE      0.224000
     14 C9          4.7320   -1.0910   -5.5340 cd        1 ORE     -0.257100
     15 C8          4.7250   -2.3650   -4.8620 cd        1 ORE     -0.044200
     16 C7          5.4860   -3.4090   -5.2980 cc        1 ORE     -0.019700
     17 F2          5.4690   -4.6020   -4.6500 f         1 ORE     -0.175500
     18 C6          6.3620   -3.3120   -6.4900 c         1 ORE      0.580500
     19 O3          7.0730   -4.2610   -6.8710 o         1 ORE     -0.607100
     20 C4          5.5580   -1.0060   -6.7170 cd        1 ORE      0.359700
     21 C5          6.3320   -2.0330   -7.1760 cc        1 ORE     -0.356200
     22 C11         4.0460    1.2050   -5.8930 ca        1 ORE     -0.196300
     23 C12         3.3130    2.3600   -5.5610 ca        1 ORE      0.009000
     24 C13         3.4530    3.5180   -6.3290 ca        1 ORE      0.002900
     25 F1          2.7770    4.6560   -6.0190 f         1 ORE     -0.148900
     26 C3          4.8770    1.2400   -7.0320 ca        1 ORE      0.375000
     27 O2          5.6350    0.1660   -7.4570 os        1 ORE     -0.398800
     28 C2          5.0170    2.3890   -7.8290 ca        1 ORE     -0.264300
     29 C1          4.3000    3.5270   -7.4700 ca        1 ORE      0.127100
     30 O1          4.4570    4.6500   -8.2500 oh        1 ORE     -0.507100
     31 H18         0.1830    0.2350   -2.3700 ha        1 ORE      0.163000
     32 H16         4.0050   -0.3810   -0.4980 ha        1 ORE      0.145000
     33 H15         5.1100   -0.3920   -2.7520 ha        1 ORE      0.101000
     34 H8          4.0670   -2.4660   -3.9790 ha        1 ORE      0.181000
     35 H5          6.9490   -1.9250   -8.0760 ha        1 ORE      0.147000
     36 H12         2.5800    2.3330   -4.7240 ha        1 ORE      0.237000
     37 H2          5.6660    2.3830   -8.7130 ha        1 ORE      0.156000
     38 HO1         3.8140    5.3080   -7.9420 ho        1 ORE      0.426000
@<TRIPOS>BOND
     1    1    2 1   
     2    2    3 1   
     3    2    4 1   
     4    4    5 ar  
     5    4   10 ar  
     6    5    6 ar  
     7    5   31 1   
     8    6    7 1   
     9    6   12 ar  
    10    7    8 1   
    11    7    9 1   
    12   10   11 ar  
    13   10   32 1   
    14   11   12 ar  
    15   11   33 1   
    16   12   13 1   
    17   13   14 2   
    18   13   22 1   
    19   14   15 1   
    20   14   20 1   
    21   15   16 2   
    22   15   34 1   
    23   16   17 1   
    24   16   18 1   
    25   18   19 2   
    26   18   21 1   
    27   20   21 2   
    28   20   27 1   
    29   21   35 1   
    30   22   23 ar  
    31   22   26 ar  
    32   23   24 ar  
    33   23   36 1   
    34   24   25 1   
    35   24   29 ar  
    36   26   27 1   
    37   26   28 ar  
    38   28   29 ar  
    39   28   37 1   
    40   29   30 1   
    41   30   38 1   
@<TRIPOS>SUBSTRUCTURE
     1 ORE         1 TEMP              0 ****  ****    0 ROOT
