@<TRIPOS>MOLECULE
ORG
   42    44     1     0     0
SMALL
bcc


@<TRIPOS>ATOM
      1 N1           0.0000     0.0000     0.0000 nb         1 ORG      -0.749000
      2 C2           1.3300     0.0000     0.0000 ca         1 ORG       0.768900
      3 N3           1.9950     0.0000     1.1500 nb         1 ORG      -0.762000
      4 C4           1.3310     0.0000     2.3010 ca         1 ORG       0.784900
      5 N5           0.0020     0.0010     2.3020 nb         1 ORG      -0.756000
      6 C6          -0.6630     0.0010     1.1520 ca         1 ORG       0.842000
      7 N7           2.0190    -0.0010    -1.1960 nu         1 ORG      -0.447900
      8 N8           2.0220    -0.0000     3.4960 nh         1 ORG      -0.444300
      9 C9          -2.0960     0.0010     1.1530 cg         1 ORG       0.124800
     10 C10          1.0980     0.0010     4.6390 c3         1 ORG       0.145300
     11 C11          1.9000    -0.0810     5.9400 c3         1 ORG       0.140800
     12 N12          2.8260     1.0590     6.0140 n7         1 ORG      -0.578200
     13 C13          3.7500     1.0590     4.8710 c3         1 ORG       0.140800
     14 C14          2.9480     1.1390     3.5700 c3         1 ORG       0.145300
     15 N15         -3.2310    -0.0180     1.1600 n1         1 ORG      -0.339800
     16 C16          1.2870    -0.0000    -2.4640 c3         1 ORG       0.125500
     17 C17          2.1630     0.6080    -3.5600 c3         1 ORG      -0.038900
     18 C18          1.3980     0.6080    -4.8850 c3         1 ORG      -0.016900
     19 C19          1.0340    -0.8290    -5.2630 c3         1 ORG      -0.026400
     20 C20          0.1570    -1.4390    -4.1670 c3         1 ORG      -0.016900
     21 C21          0.9220    -1.4380    -2.8420 c3         1 ORG      -0.038900
     22 HN7          3.0200    -0.0110    -1.1970 hn         1 ORG       0.303800
     23 H10          0.4740     0.8840     4.5840 h1         1 ORG       0.032950
     24 H10A         0.4730    -0.8820     4.5840 h1         1 ORG       0.032950
     25 H11          2.3750    -1.0530     5.9990 h1         1 ORG       0.015450
     26 H11A         1.2230     0.0380     6.7770 h1         1 ORG       0.015450
     27 HN12         3.4110     0.9620     6.8200 hn         1 ORG       0.252800
     28 H13          4.4110     0.2050     4.9560 h1         1 ORG       0.015450
     29 H13A         4.3360     1.9690     4.8940 h1         1 ORG       0.015450
     30 H14          3.6750     1.0520     2.7710 h1         1 ORG       0.032950
     31 H14A         2.3850     2.0560     3.4420 h1         1 ORG       0.032950
     32 H16          0.3810     0.5850    -2.3630 h1         1 ORG       0.061700
     33 H17          3.0680     0.0200    -3.6520 hc         1 ORG       0.020950
     34 H17A         2.4230     1.6210    -3.2790 hc         1 ORG       0.020950
     35 H18          2.0650     0.9320    -5.6750 hc         1 ORG       0.017450
     36 H18A         0.5690     1.3010    -4.8110 hc         1 ORG       0.017450
     37 H19          1.9420    -1.3710    -5.4960 hc         1 ORG       0.015700
     38 H19A         0.3950    -0.8110    -6.1380 hc         1 ORG       0.015700
     39 H20         -0.7760    -0.8910    -4.1100 hc         1 ORG       0.017450
     40 H20A        -0.0460    -2.4760    -4.4070 hc         1 ORG       0.017450
     41 H21          1.8210    -2.0270    -2.9780 hc         1 ORG       0.020950
     42 H21A         0.2910    -1.8760    -2.0790 hc         1 ORG       0.020950
@<TRIPOS>BOND
     1     1     2 ar  
     2     1     6 ar  
     3     2     3 ar  
     4     2     7 1   
     5     3     4 ar  
     6     4     5 ar  
     7     4     8 1   
     8     5     6 ar  
     9     6     9 1   
    10     7    16 1   
    11     7    22 1   
    12     8    10 1   
    13     8    14 1   
    14     9    15 3   
    15    10    11 1   
    16    10    23 1   
    17    10    24 1   
    18    11    12 1   
    19    11    25 1   
    20    11    26 1   
    21    12    13 1   
    22    12    27 1   
    23    13    14 1   
    24    13    28 1   
    25    13    29 1   
    26    14    30 1   
    27    14    31 1   
    28    16    17 1   
    29    16    21 1   
    30    16    32 1   
    31    17    18 1   
    32    17    33 1   
    33    17    34 1   
    34    18    19 1   
    35    18    35 1   
    36    18    36 1   
    37    19    20 1   
    38    19    37 1   
    39    19    38 1   
    40    20    21 1   
    41    20    39 1   
    42    20    40 1   
    43    21    41 1   
    44    21    42 1   
@<TRIPOS>SUBSTRUCTURE
     1 ORG         1 TEMP              0 ****  ****    0 ROOT
