@<TRIPOS>MOLECULE
ORH
   49    55     1     0     0
SMALL
bcc


@<TRIPOS>ATOM
      1 C1           0.0000     0.0000     0.0000 c3         1 ORH      -0.404000
      2 F1          -6.5220    -4.5970    -5.8380 f          1 ORH      -0.133000
      3 N1           1.4690     0.0000     0.0000 n3         1 ORH      -0.067000
      4 O1          -2.5790     2.7110    -2.4970 o          1 ORH      -0.322000
      5 C2          -0.5100     0.2500    -1.4210 DU         1 ORH       0.082000
      6 F2          -5.0050    -4.9030    -4.1570 f          1 ORH      -0.133000
      7 N2          -2.5280     0.4890    -2.7820 nx         1 ORH       0.085000
      8 C3          -2.0400     0.2500    -1.4210 c3         1 ORH      -0.167000
      9 F3          -4.7180    -5.9600    -6.1610 f          1 ORH      -0.133000
     10 N3          -3.2040    -0.3340    -4.8700 n          1 ORH       0.269000
     11 C4          -2.7570    -0.5410    -3.6210 c2         1 ORH       0.107000
     12 N4          -3.4390     0.8400    -5.3360 n2         1 ORH      -0.008000
     13 C5          -2.7640     1.7490    -3.2180 c2         1 ORH       0.241000
     14 C6          -3.2550     1.9140    -4.6000 c2         1 ORH      -0.090000
     15 C7          -4.1580    -2.5240    -5.2290 ca         1 ORH       0.004000
     16 C8          -4.3720    -3.6160    -6.0470 ca         1 ORH      -0.193000
     17 C9          -3.4230    -1.4410    -5.6960 ca         1 ORH      -0.132000
     18 C10         -3.8560    -3.6320    -7.3300 ca         1 ORH      -0.013000
     19 C11         -2.9070    -1.4610    -6.9850 ca         1 ORH      -0.055000
     20 C12         -3.1240    -2.5560    -7.7980 ca         1 ORH      -0.099000
     21 C14         -3.5200     3.2180    -5.1310 c1         1 ORH      -0.082000
     22 C15          1.9950     0.0000     1.3710 c3         1 ORH      -0.034000
     23 N15         -3.7110     4.2560    -5.5510 n1         1 ORH      -0.005000
     24 C17          3.5180     0.1480     1.3350 c3         1 ORH      -0.397000
     25 C18          1.9960    -1.1330    -0.7710 c3         1 ORH      -0.078000
     26 C19          4.1200    -1.0130     0.5370 DU         1 ORH      -0.091000
     27 C20          3.5190    -1.0190    -0.8720 DU         1 ORH      -0.194000
     28 H1          -0.2150     0.4550     0.9590 h1         1 ORH       0.138000
     29 H1A         -0.0080     0.8440    -0.6790 DU         1 ORH       0.111000
     30 H2          -0.0290     0.9650    -2.0770 ha         1 ORH       0.073000
     31 H2A         -0.1780    -0.7540    -1.6570 ha         1 ORH       0.073000
     32 H3          -2.7640     0.0520    -0.6400 hx         1 ORH       0.157000
     33 H3A         -2.3610     1.1740    -1.8860 DU         1 ORH       0.079000
     34 H7          -4.6230    -2.3960    -4.2590 ha         1 ORH       0.133000
     35 H10         -3.7840    -4.5990    -7.8120 ha         1 ORH       0.124000
     36 H11         -2.4050    -0.5980    -7.4080 ha         1 ORH       0.120000
     37 H12         -2.5730    -2.4580    -8.7260 ha         1 ORH       0.120000
     38 H15          1.5690    -0.7920     1.9760 h1         1 ORH       0.048000
     39 H15A         1.3810     0.8400     1.6740 h1         1 ORH       0.048000
     40 H17          4.2000     0.3630     2.1480 hc         1 ORH       0.077500
     41 H17A         4.1240    -0.6330     0.8900 hc         1 ORH       0.077500
     42 H18          1.3990    -2.0330    -0.6830 h1         1 ORH       0.066000
     43 H18A         1.8120    -0.8290    -1.7940 h1         1 ORH       0.066000
     44 H19          5.1290    -0.8300     0.8850 ha         1 ORH       0.143000
     45 H19A         3.8870    -0.6330    -0.4510 DU         1 ORH       0.104500
     46 H20          3.5540    -1.4200     0.1340 DU         1 ORH       0.104500
     47 H20A         4.1460    -1.5220    -1.5980 ha         1 ORH       0.109000
     48 O2          -2.5540    -1.6760    -3.2400 o          1 ORH      -0.351000
     49 C13         -5.1690    -4.7900    -5.5420 c3         1 ORH       0.422000
@<TRIPOS>BOND
     1     1     3 1   
     2     1     5 1   
     3     1    28 1   
     4     1    29 1   
     5     2    49 1   
     6     3    22 1   
     7     3    25 1   
     8     4    13 1   
     9     5     8 1   
    10     5    29 1   
    11     5    30 1   
    12     5    31 1   
    13     6    49 1   
    14     7     8 1   
    15     7    11 1   
    16     7    13 1   
    17     7    33 1   
    18     8    32 1   
    19     8    33 1   
    20     9    49 1   
    21    10    11 1   
    22    10    12 1   
    23    10    17 1   
    24    11    48 1   
    25    12    14 1   
    26    13    14 1   
    27    14    21 1   
    28    15    16 1   
    29    15    17 1   
    30    15    34 1   
    31    16    18 1   
    32    16    49 1   
    33    17    19 1   
    34    18    20 1   
    35    18    35 1   
    36    19    20 1   
    37    19    36 1   
    38    20    37 1   
    39    21    23 1   
    40    22    24 1   
    41    22    38 1   
    42    22    39 1   
    43    24    26 1   
    44    24    40 1   
    45    24    41 1   
    46    25    27 1   
    47    25    42 1   
    48    25    43 1   
    49    26    27 1   
    50    26    44 1   
    51    26    45 1   
    52    26    46 1   
    53    27    45 1   
    54    27    46 1   
    55    27    47 1   
@<TRIPOS>SUBSTRUCTURE
     1 ORH         1 TEMP              0 ****  ****    0 ROOT
