@<TRIPOS>MOLECULE
molecule
   49    51     1     0     0
SMALL
bcc


@<TRIPOS>ATOM
      1 C1           0.0000     0.0000     0.0000 c3         1 ORH      -0.155200
      2 F1          -6.5220    -4.5970    -5.8380 f          1 ORH      -0.218633
      3 N1           1.4690     0.0000     0.0000 n3         1 ORH      -0.701600
      4 O1          -2.5790     2.7110    -2.4970 o          1 ORH      -0.561500
      5 C2          -0.5100     0.2500    -1.4210 c3         1 ORH       0.066600
      6 F2          -5.0050    -4.9030    -4.1570 f          1 ORH      -0.218633
      7 N2          -2.5280     0.4890    -2.7820 n          1 ORH      -0.456400
      8 C3          -2.0400     0.2500    -1.4210 c3         1 ORH      -0.013000
      9 F3          -4.7180    -5.9600    -6.1610 f          1 ORH      -0.218633
     10 N3          -3.2040    -0.3340    -4.8700 n          1 ORH      -0.072000
     11 C4          -2.7570    -0.5410    -3.6210 c          1 ORH       0.728500
     12 N4          -3.4390     0.8400    -5.3360 nc         1 ORH      -0.359300
     13 C5          -2.7640     1.7490    -3.2180 c          1 ORH       0.580200
     14 C6          -3.2550     1.9140    -4.6000 cd         1 ORH       0.299200
     15 C7          -4.1580    -2.5240    -5.2290 ca         1 ORH      -0.047000
     16 C8          -4.3720    -3.6160    -6.0470 ca         1 ORH      -0.170300
     17 C9          -3.4230    -1.4410    -5.6960 ca         1 ORH       0.030600
     18 C10         -3.8560    -3.6320    -7.3300 ca         1 ORH      -0.062000
     19 C11         -2.9070    -1.4610    -6.9850 ca         1 ORH      -0.093000
     20 C12         -3.1240    -2.5560    -7.7980 ca         1 ORH      -0.126000
     21 C14         -3.5200     3.2180    -5.1310 ch         1 ORH       0.235600
     22 C15          1.9950     0.0000     1.3710 c3         1 ORH       0.180800
     23 N15         -3.7110     4.2560    -5.5510 n1         1 ORH      -0.301800
     24 C17          3.5180     0.1480     1.3350 c3         1 ORH      -0.313900
     25 C18          1.9960    -1.1330    -0.7710 c3         1 ORH       0.180800
     26 C19          4.1200    -1.0130     0.5370 c3         1 ORH      -0.334400
     27 C20          3.5190    -1.0190    -0.8720 c3         1 ORH      -0.313900
     28 H1          -0.2150     0.4550     0.9590 h1         1 ORH       0.121200
     29 H1A         -0.0080     0.8440    -0.6790 h1         1 ORH       0.121200
     30 H2          -0.0290     0.9650    -2.0770 hc         1 ORH       0.068200
     31 H2A         -0.1780    -0.7540    -1.6570 hc         1 ORH       0.068200
     32 H3          -2.7640     0.0520    -0.6400 h1         1 ORH       0.137200
     33 H3A         -2.3610     1.1740    -1.8860 h1         1 ORH       0.137200
     34 H7          -4.6230    -2.3960    -4.2590 ha         1 ORH       0.165000
     35 H10         -3.7840    -4.5990    -7.8120 ha         1 ORH       0.157000
     36 H11         -2.4050    -0.5980    -7.4080 ha         1 ORH       0.153000
     37 H12         -2.5730    -2.4580    -8.7260 ha         1 ORH       0.152000
     38 H15          1.5690    -0.7920     1.9760 h1         1 ORH       0.041200
     39 H15A         1.3810     0.8400     1.6740 h1         1 ORH       0.041200
     40 H17          4.2000     0.3630     2.1480 hc         1 ORH       0.160950
     41 H17A         4.1240    -0.6330     0.8900 hc         1 ORH       0.160950
     42 H18          1.3990    -2.0330    -0.6830 h1         1 ORH       0.041200
     43 H18A         1.8120    -0.8290    -1.7940 h1         1 ORH       0.041200
     44 H19          5.1290    -0.8300     0.8850 hc         1 ORH       0.124700
     45 H19A         3.8870    -0.6330    -0.4510 hc         1 ORH       0.124700
     46 H20          3.5540    -1.4200     0.1340 hc         1 ORH       0.160950
     47 H20A         4.1460    -1.5220    -1.5980 hc         1 ORH       0.160950
     48 O2          -2.5540    -1.6760    -3.2400 o          1 ORH      -0.582500
     49 C13         -5.1690    -4.7900    -5.5420 c3         1 ORH       0.678200
@<TRIPOS>BOND
     1     1     3 1
     2     1     5 1
     3     1    28 1
     4     1    29 1
     5     2    49 1
     6     3    22 1
     7     3    25 1
     8     4    13 2
     9     5     8 1
    10     5    30 1
    11     5    31 1
    12     6    49 1
    13     7     8 1
    14     7    11 1
    15     7    13 1
    16    48    11 2
    17     8    32 1
    18     8    33 1
    19     9    49 1
    20    10    11 1
    21    10    12 1
    22    10    17 1
    23    12    14 2
    24    13    14 1
    25    14    21 1
    26    15    16 ar
    27    15    17 ar
    28    15    34 1
    29    16    18 ar
    30    16    49 1
    31    17    19 ar
    32    18    20 ar
    33    18    35 1
    34    19    20 ar
    35    19    36 1
    36    20    37 1
    37    21    23 3
    38    22    24 1
    39    22    38 1
    40    22    39 1
    41    24    26 1
    42    24    40 1
    43    24    41 1
    44    25    27 1
    45    25    42 1
    46    25    43 1
    47    26    27 1
    48    26    44 1
    49    26    45 1
    50    27    46 1
    51    27    47 1
@<TRIPOS>SUBSTRUCTURE
     1 ORH         1 TEMP              0 ****  ****    0 ROOT
