@<TRIPOS>MOLECULE
ORI
   34    36     1     0     0
SMALL
bcc


@<TRIPOS>ATOM
      1 OB4          0.0000     0.0000     0.0000 o          1 ORI      -0.652867
      2 SB           1.4210     0.0000     0.0000 s6         1 ORI       1.024100
      3 OB2          2.1980     0.0000     1.1900 o          1 ORI      -0.652867
      4 OB3          1.8500    -1.2260    -0.7930 o          1 ORI      -0.652867
      5 CB4          1.9190     1.4170    -0.9200 ca         1 ORI      -0.055500
      6 CB5          1.0590     1.9720    -1.8510 ca         1 ORI      -0.029000
      7 CB6          1.4410     3.0820    -2.5750 ca         1 ORI      -0.103500
      8 CB3          3.1670     1.9750    -0.7040 ca         1 ORI      -0.029000
      9 CB2          3.5650     3.0850    -1.4190 ca         1 ORI      -0.103500
     10 CB1          2.7030     3.6460    -2.3650 ca         1 ORI       0.033400
     11 N2           3.0890     4.7460    -3.0780 ne         1 ORI      -0.133400
     12 N1           2.2910     5.2620    -3.9510 nf         1 ORI      -0.224400
     13 C1           2.6750     6.3560    -4.6600 ca         1 ORI       0.099400
     14 C2           3.9290     6.9290    -4.4560 ca         1 ORI      -0.094000
     15 C3           4.3220     8.0430    -5.1780 ca         1 ORI      -0.164000
     16 C4           3.4960     8.6230    -6.1190 ca         1 ORI       0.131100
     17 OA1          3.9180     9.7170    -6.8000 oh         1 ORI      -0.497100
     18 C5           2.2160     8.0900    -6.3720 ca         1 ORI      -0.059000
     19 C10          1.7830     6.9480    -5.6570 ca         1 ORI       0.006000
     20 C6           1.3620     8.6670    -7.3260 ca         1 ORI      -0.086000
     21 C7           0.1310     8.1240    -7.5450 ca         1 ORI      -0.111000
     22 C8          -0.2940     7.0040    -6.8350 ca         1 ORI      -0.107000
     23 C9           0.5130     6.4160    -5.9070 ca         1 ORI      -0.072000
     24 H1           0.0820     1.5330    -2.0120 ha         1 ORI       0.127500
     25 H2           0.7670     3.5130    -3.3040 ha         1 ORI       0.105000
     26 H3           3.8340     1.5380     0.0300 ha         1 ORI       0.127500
     27 H4           4.5430     3.5180    -1.2500 ha         1 ORI       0.105000
     28 H5           4.6020     6.4980    -3.7250 ha         1 ORI       0.129000
     29 H6           5.3020     8.4690    -5.0000 ha         1 ORI       0.105000
     30 H7           4.6780     9.4950    -7.3120 ho         1 ORI       0.399000
     31 H8           1.6800     9.5390    -7.8850 ha         1 ORI       0.111000
     32 H9          -0.5280     8.5740    -8.2770 ha         1 ORI       0.095000
     33 H10         -1.2770     6.5920    -7.0270 ha         1 ORI       0.099000
     34 H11          0.1700     5.5450    -5.3610 ha         1 ORI       0.129000
@<TRIPOS>BOND
     1     1     2 1   
     2     2     3 1   
     3     2     4 1   
     4     2     5 1   
     5     5     6 ar  
     6     5     8 ar  
     7     6     7 ar  
     8     6    24 1   
     9     7    10 ar  
    10     7    25 1   
    11     8     9 ar  
    12     8    26 1   
    13     9    10 ar  
    14     9    27 1   
    15    10    11 1   
    16    11    12 2   
    17    12    13 1   
    18    13    14 ar  
    19    13    19 ar  
    20    14    15 ar  
    21    14    28 1   
    22    15    16 ar  
    23    15    29 1   
    24    16    17 1   
    25    16    18 ar  
    26    17    30 1   
    27    18    19 ar  
    28    18    20 ar  
    29    19    23 ar  
    30    20    21 ar  
    31    20    31 1   
    32    21    22 ar  
    33    21    32 1   
    34    22    23 ar  
    35    22    33 1   
    36    23    34 1   
@<TRIPOS>SUBSTRUCTURE
     1 ORI         1 TEMP              0 ****  ****    0 ROOT
