@<TRIPOS>MOLECULE
molecule
   44    44     1     0     0
SMALL
bcc


@<TRIPOS>ATOM
      1 OXT          0.0000     0.0000     0.0000 o          1 ORX      -0.802800
      2 CA           1.3420     0.0000     0.0000 c          1 ORX       0.848600
      3 OA           1.9460    -0.0000    -1.0460 o          1 ORX      -0.802800
      4 CAA          2.0950     0.0000     1.3050 c3         1 ORX       0.041500
      5 NA           1.3010    -0.6930     2.3290 n7         1 ORX      -0.825200
      6 C4A          1.6810    -2.1090     2.2710 c3         1 ORX       0.201100
      7 C4           0.8990    -2.8820     3.3020 ca         1 ORX      -0.079300
      8 C5          -0.3270    -3.4430     2.9880 ca         1 ORX      -0.138600
      9 C6          -1.0160    -4.1450     3.9580 ca         1 ORX       0.428200
     10 N1          -0.5220    -4.2850     5.1720 nb         1 ORX      -0.714000
     11 C2           0.6410    -3.7670     5.5120 ca         1 ORX       0.338600
     12 C3           1.3880    -3.0440     4.5940 ca         1 ORX      -0.033200
     13 O3           2.5870    -2.5100     4.9490 oh         1 ORX      -0.530100
     14 C2A          1.1600    -3.9560     6.9140 c3         1 ORX      -0.123400
     15 C5A         -0.9030    -3.2910     1.6030 c3         1 ORX       0.175700
     16 OP4         -2.1650    -3.9560     1.5360 os         1 ORX      -0.551200
     17 P           -2.7200    -3.7530     0.0390 p5         1 ORX       1.156900
     18 OP1         -4.1480    -4.4820    -0.1070 o          1 ORX      -0.808833
     19 OP2         -2.8850    -2.1820    -0.2640 o          1 ORX      -0.808833
     20 OP3         -1.7650    -4.3440    -0.9240 o          1 ORX      -0.808833
     21 CBA          2.3500     1.4420     1.7470 c3         1 ORX      -0.042400
     22 CGA          3.1160     1.4420     3.0730 c3         1 ORX      -0.102400
     23 CDA          3.3700     2.8840     3.5140 c3         1 ORX       0.062800
     24 NE           4.1050     2.8840     4.7860 nz         1 ORX      -0.808600
     25 HAA          3.0410    -0.5110     1.1760 h1         1 ORX       0.033700
     26 HNA          0.3280    -0.6000     2.1160 hn         1 ORX       0.407800
     27 H4A1         1.4640    -2.5020     1.2840 h1         1 ORX       0.045200
     28 H4A2         2.7410    -2.2080     2.4730 h1         1 ORX       0.045200
     29 H6          -1.9760    -4.5870     3.7180 h4         1 ORX       0.069100
     30 HO3          3.2450    -3.1850     4.9430 ho         1 ORX       0.390000
     31 H2A1         2.0600    -4.5590     6.8880 hc         1 ORX       0.028367
     32 H2A2         1.3860    -2.9890     7.3490 hc         1 ORX       0.028367
     33 H2A3         0.4080    -4.4550     7.5130 hc         1 ORX       0.028367
     34 H5A1        -0.2260    -3.7300     0.8800 h1         1 ORX       0.088700
     35 H5A2        -1.0360    -2.2390     1.3810 h1         1 ORX       0.088700
     36 HBA1         1.4040     1.9530     1.8760 hc         1 ORX       0.046200
     37 HBA2         2.9360     1.9530     0.9920 hc         1 ORX       0.046200
     38 HGA1         4.0620     0.9310     2.9430 hc         1 ORX       0.061700
     39 HGA2         2.5300     0.9310     3.8280 hc         1 ORX       0.061700
     40 HDA1         3.9550     3.3950     2.7590 hx         1 ORX       0.076200
     41 HDA2         2.4230     3.3940     3.6440 hx         1 ORX       0.076200
     42 HNE1         3.5490     2.4450     5.4930 hn         1 ORX       0.369133
     43 HNE2         4.9630     2.3810     4.6760 hn         1 ORX       0.369133
     44 HE3          4.3030     3.8270     5.0560 hn         1 ORX       0.369133
@<TRIPOS>BOND
     1     1     2 1
     2     2     3 1
     3     2     4 1
     4     4     5 1
     5     4    21 1
     6     4    25 1
     7     5     6 1
     8     5    26 1
     9     6     7 1
    10     6    27 1
    11     6    28 1
    12     7     8 ar
    13     7    12 ar
    14     8     9 ar
    15     8    15 1
    16     9    10 ar
    17     9    29 1
    18    10    11 ar
    19    11    12 ar
    20    11    14 1
    21    12    13 1
    22    13    30 1
    23    14    31 1
    24    14    32 1
    25    14    33 1
    26    15    16 1
    27    15    34 1
    28    15    35 1
    29    16    17 1
    30    17    18 1
    31    17    19 1
    32    17    20 1
    33    21    22 1
    34    21    36 1
    35    21    37 1
    36    22    23 1
    37    22    38 1
    38    22    39 1
    39    23    24 1
    40    23    40 1
    41    23    41 1
    42    24    42 1
    43    24    43 1
    44    44    24 1
@<TRIPOS>SUBSTRUCTURE
     1 ORX         1 TEMP              0 ****  ****    0 ROOT
