@<TRIPOS>MOLECULE
ORX
   43    43     1     0     0
SMALL
bcc


@<TRIPOS>ATOM
      1 OXT         1.7870    1.1870   -0.9190 o         1 ORX     -0.852800
      2 CA          2.7810    0.8160   -0.2360 c         1 ORX      0.891600
      3 OA          3.9790    0.8710   -0.6440 o         1 ORX     -0.852800
      4 CAA         2.5570    0.2980    1.2230 c3        1 ORX      0.054500
      5 NA          1.2840   -0.3600    1.4820 n3        1 ORX     -0.839200
      6 C4A         1.2650   -1.8080    1.3490 c3        1 ORX      0.215100
      7 C4          0.7280   -2.5290    2.5630 ca        1 ORX     -0.137300
      8 C5         -0.4800   -3.2310    2.5540 ca        1 ORX     -0.142600
      9 C6         -0.8470   -3.9650    3.7250 ca        1 ORX      0.370200
     10 N1         -0.1330   -3.9950    4.8490 nb        1 ORX     -0.685000
     11 C2          1.0370   -3.2960    4.8780 ca        1 ORX      0.298600
     12 C3          1.4930   -2.5740    3.7540 ca        1 ORX     -0.009200
     13 O3          2.7280   -1.9680    3.8990 oh        1 ORX     -0.551100
     14 C2A         1.8770   -3.3050    6.1110 c3        1 ORX     -0.102400
     15 C5A        -1.4250   -3.3180    1.3750 c3        1 ORX      0.241700
     16 OP4        -2.7320   -3.5010    1.7490 os        1 ORX     -0.566200
     17 P          -3.4230   -5.0700    1.4780 p5        1 ORX      1.316900
     18 OP1        -2.6340   -5.5840    0.3030 o         1 ORX     -0.925833
     19 OP2        -3.1040   -5.7260    2.8010 o         1 ORX     -0.925833
     20 OP3        -4.8720   -4.7650    1.2250 o         1 ORX     -0.925833
     21 CBA         2.7390    1.5350    2.1230 c3        1 ORX     -0.057400
     22 CGA         2.8610    1.1870    3.5870 c3        1 ORX     -0.122400
     23 CDA         3.0340    2.4440    4.4370 c3        1 ORX      0.141800
     24 NE          3.1030    2.2410    5.8690 n3        1 ORX     -0.914800
     25 HAA         3.4070   -0.4130    1.4450 h1        1 ORX      0.029700
     26 HNA         0.5820    0.0490    0.8900 hn        1 ORX      0.385800
     27 H4A1        0.6460   -2.1160    0.4570 h1        1 ORX      0.038200
     28 H4A2        2.3060   -2.2090    1.1630 h1        1 ORX      0.038200
     29 H6         -1.8040   -4.5840    3.6580 h4        1 ORX      0.149100
     30 HO3         2.8510   -1.3620    3.1570 ho        1 ORX      0.427000
     31 H2A1        2.7960   -3.9170    5.9310 hc        1 ORX      0.016033
     32 H2A2        1.3340   -3.7270    6.9900 hc        1 ORX      0.016033
     33 H2A3        2.2000   -2.2620    6.3500 hc        1 ORX      0.016033
     34 H5A1       -1.3470   -2.3470    0.7990 h1        1 ORX      0.024700
     35 H5A2       -1.0780   -4.1700    0.7140 h1        1 ORX      0.024700
     36 HBA1        3.6700    2.0600    1.7800 hc        1 ORX      0.036700
     37 HBA2        1.8770    2.2350    1.9680 hc        1 ORX      0.036700
     38 HGA1        1.9480    0.6230    3.9180 hc        1 ORX      0.051200
     39 HGA2        3.7420    0.5090    3.7420 hc        1 ORX      0.051200
     40 HDA1        2.1750    3.1440    4.2290 h1        1 ORX      0.035700
     41 HDA2        3.9800    2.9700    4.1230 h1        1 ORX      0.035700
     42 HNE1        2.2350    1.8570    6.1960 hn        1 ORX      0.334300
     43 HNE2        3.8200    1.5710    6.0790 hn        1 ORX      0.334300
@<TRIPOS>BOND
     1    1    2 1   
     2    2    3 1   
     3    2    4 1   
     4    4    5 1   
     5    4   21 1   
     6    4   25 1   
     7    5    6 1   
     8    5   26 1   
     9    6    7 1   
    10    6   27 1   
    11    6   28 1   
    12    7    8 ar  
    13    7   12 ar  
    14    8    9 ar  
    15    8   15 1   
    16    9   10 ar  
    17    9   29 1   
    18   10   11 ar  
    19   11   12 ar  
    20   11   14 1   
    21   12   13 1   
    22   13   30 1   
    23   14   31 1   
    24   14   32 1   
    25   14   33 1   
    26   15   16 1   
    27   15   34 1   
    28   15   35 1   
    29   16   17 1   
    30   17   18 1   
    31   17   19 1   
    32   17   20 1   
    33   21   22 1   
    34   21   36 1   
    35   21   37 1   
    36   22   23 1   
    37   22   38 1   
    38   22   39 1   
    39   23   24 1   
    40   23   40 1   
    41   23   41 1   
    42   24   42 1   
    43   24   43 1   
@<TRIPOS>SUBSTRUCTURE
     1 ORX         1 TEMP              0 ****  ****    0 ROOT
