@<TRIPOS>MOLECULE
molecule
   46    49     1     0     0
SMALL
bcc


@<TRIPOS>ATOM
      1 CAA          0.0000     0.0000     0.0000 ca         1 OSA      -0.155000
      2 CAB          1.3600     0.0000     0.0000 ca         1 OSA      -0.115000
      3 CAC          2.0610     0.0000     1.2180 ca         1 OSA      -0.065000
      4 CAD          1.3420    -0.0010     2.4410 ca         1 OSA      -0.032000
      5 CAE         -0.0590    -0.0010     2.4140 ca         1 OSA      -0.124000
      6 CAF         -0.7180     0.0000     1.2020 ca         1 OSA       0.132600
      7 NAG         -2.1120     0.0010     1.1730 nv         1 OSA      -0.991200
      8 CAH          2.0440    -0.0020     3.6640 ca         1 OSA      -0.045000
      9 CAI          3.3980    -0.0030     3.6740 ca         1 OSA      -0.190500
     10 CAJ          4.1300    -0.0030     2.4710 ca         1 OSA       0.176400
     11 CAK          3.4690    -0.0010     1.2420 ca         1 OSA       0.081100
     12 OAL          4.1730    -0.0010     0.0850 oh         1 OSA      -0.490100
     13 NAM          5.4920    -0.0030     2.5060 ne         1 OSA      -0.199400
     14 NAN          6.1660    -0.0030     1.4060 nf         1 OSA      -0.205400
     15 CAO          7.5320    -0.0040     1.4420 ca         1 OSA       0.087400
     16 CAP          8.1980    -0.0050     2.6810 ca         1 OSA      -0.114000
     17 CAQ          9.5540    -0.0050     2.7410 ca         1 OSA      -0.134000
     18 CAR         10.3110    -0.0050     1.5560 ca         1 OSA      -0.011000
     19 CAS          9.6530    -0.0040     0.3010 ca         1 OSA      -0.063000
     20 CAT          8.2520    -0.0100     0.2560 ca         1 OSA      -0.059000
     21 CAU         10.4160    -0.0030    -0.8810 ca         1 OSA      -0.031000
     22 CAV         11.7750    -0.0030    -0.8110 ca         1 OSA      -0.252500
     23 CAW         12.4320    -0.0030     0.4170 ca         1 OSA      -0.092000
     24 CAX         11.7210    -0.0050     1.5960 ca         1 OSA       0.066100
     25 OAY         12.3720    -0.0040     2.7880 oh         1 OSA      -0.522100
     26 SAZ         12.7200    -0.0020    -2.2990 s6         1 OSA       1.330100
     27 OBA         12.9620     1.4520    -2.6790 o          1 OSA      -0.715533
     28 OBB         13.9900    -0.5460    -1.9680 o          1 OSA      -0.715533
     29 OBC         11.8810    -0.5450    -3.3080 o          1 OSA      -0.715533
     30 SBD          4.2560    -0.0050     5.2140 s6         1 OSA       1.327100
     31 OBE          4.3190     1.3500     5.6390 o          1 OSA      -0.704533
     32 OBF          3.3750    -0.7310     6.2190 o          1 OSA      -0.704533
     33 OBG          5.4090    -0.8160     5.0300 o          1 OSA      -0.704533
     34 HAA         -0.5350     0.0010    -0.9420 ha         1 OSA       0.116000
     35 HAB          1.9020    -0.0000    -0.9380 ha         1 OSA       0.130000
     36 HAE         -0.6220    -0.0000     3.3400 ha         1 OSA       0.134000
     37 HNAG        -2.6120     0.8680     1.1730 hn         1 OSA       0.414800
     38 HNAA        -2.6130    -0.8660     1.1730 hn         1 OSA       0.414800
     39 HAH          1.4970    -0.0030     4.5990 ha         1 OSA       0.159000
     40 HOAL         4.0990    -0.8450    -0.3290 ho         1 OSA       0.410000
     41 HAP          7.6220    -0.0030     3.5990 ha         1 OSA       0.184000
     42 HAQ         10.0540    -0.0060     3.7020 ha         1 OSA       0.139000
     43 HAT          7.7400     0.1220    -0.6890 ha         1 OSA       0.142000
     44 HAU          9.9230    -0.0030    -1.8460 ha         1 OSA       0.153000
     45 HAW         13.5150    -0.0040     0.4450 ha         1 OSA       0.147000
     46 HOAY        13.0270     0.6740     2.7880 ho         1 OSA       0.407000
@<TRIPOS>BOND
     1     1     2 ar
     2     1     6 ar
     3     2     3 ar
     4     3     4 ar
     5     3    11 ar
     6     4     5 ar
     7     4     8 ar
     8     5     6 ar
     9     6     7 1
    10     8     9 ar
    11     9    10 ar
    12     9    30 1
    13    10    11 ar
    14    10    13 1
    15    11    12 1
    16    13    14 2
    17    14    15 1
    18    15    16 ar
    19    15    20 ar
    20    16    17 ar
    21    17    18 ar
    22    18    19 ar
    23    18    24 ar
    24    19    20 ar
    25    19    21 ar
    26    21    22 ar
    27    22    23 ar
    28    22    26 1
    29    23    24 ar
    30    24    25 1
    31    26    27 1
    32    26    28 1
    33    26    29 1
    34    30    31 1
    35    30    32 1
    36    30    33 1
    37     1    34 1
    38     2    35 1
    39     5    36 1
    40     7    37 1
    41     7    38 1
    42     8    39 1
    43    12    40 1
    44    16    41 1
    45    17    42 1
    46    20    43 1
    47    21    44 1
    48    23    45 1
    49    25    46 1
@<TRIPOS>SUBSTRUCTURE
     1 OSA         1 TEMP              0 ****  ****    0 ROOT
