@<TRIPOS>MOLECULE
OSA
   46    49     1     0     0
SMALL
bcc


@<TRIPOS>ATOM
      1 CAA          0.0000     0.0000     0.0000 ca         1 OSA      -0.132000
      2 CAB          1.3600     0.0000     0.0000 ca         1 OSA      -0.086000
      3 CAC          2.0610     0.0000     1.2180 ca         1 OSA      -0.068000
      4 CAD          1.3420    -0.0010     2.4410 ca         1 OSA      -0.037000
      5 CAE         -0.0590    -0.0010     2.4140 ca         1 OSA      -0.088000
      6 CAF         -0.7180     0.0000     1.2020 ca         1 OSA      -0.008400
      7 NAG         -2.1120     0.0010     1.1730 nv         1 OSA      -0.559200
      8 CAH          2.0440    -0.0020     3.6640 ca         1 OSA      -0.024000
      9 CAI          3.3980    -0.0030     3.6740 ca         1 OSA      -0.038500
     10 CAJ          4.1300    -0.0030     2.4710 ca         1 OSA       0.141400
     11 CAK          3.4690    -0.0010     1.2420 ca         1 OSA       0.084100
     12 OAL          4.1730    -0.0010     0.0850 oh         1 OSA      -0.469100
     13 NAM          5.4920    -0.0030     2.5060 ne         1 OSA      -0.128400
     14 NAN          6.1660    -0.0030     1.4060 nf         1 OSA      -0.175400
     15 CAO          7.5320    -0.0040     1.4420 ca         1 OSA       0.053400
     16 CAP          8.1980    -0.0050     2.6810 ca         1 OSA      -0.099000
     17 CAQ          9.5540    -0.0050     2.7410 ca         1 OSA      -0.105000
     18 CAR         10.3110    -0.0050     1.5560 ca         1 OSA      -0.022000
     19 CAS          9.6530    -0.0040     0.3010 ca         1 OSA      -0.069000
     20 CAT          8.2520    -0.0100     0.2560 ca         1 OSA      -0.041000
     21 CAU         10.4160    -0.0030    -0.8810 ca         1 OSA      -0.012000
     22 CAV         11.7750    -0.0030    -0.8110 ca         1 OSA      -0.088500
     23 CAW         12.4320    -0.0030     0.4170 ca         1 OSA      -0.074000
     24 CAX         11.7210    -0.0050     1.5960 ca         1 OSA       0.070100
     25 OAY         12.3720    -0.0040     2.7880 oh         1 OSA      -0.499100
     26 SAZ         12.7200    -0.0020    -2.2990 s6         1 OSA       1.032100
     27 OBA         12.9620     1.4520    -2.6790 o          1 OSA      -0.663867
     28 OBB         13.9900    -0.5460    -1.9680 o          1 OSA      -0.663867
     29 OBC         11.8810    -0.5450    -3.3080 o          1 OSA      -0.663867
     30 SBD          4.2560    -0.0050     5.2140 s6         1 OSA       1.031100
     31 OBE          4.3190     1.3500     5.6390 o          1 OSA      -0.652867
     32 OBF          3.3750    -0.7310     6.2190 o          1 OSA      -0.652867
     33 OBG          5.4090    -0.8160     5.0300 o          1 OSA      -0.652867
     34 HAA         -0.5350     0.0010    -0.9420 ha         1 OSA       0.091000
     35 HAB          1.9020    -0.0000    -0.9380 ha         1 OSA       0.103000
     36 HAE         -0.6220    -0.0000     3.3400 ha         1 OSA       0.107000
     37 HNAG        -2.6120     0.8680     1.1730 hn         1 OSA       0.259300
     38 HNAA        -2.6130    -0.8660     1.1730 hn         1 OSA       0.259300
     39 HAH          1.4970    -0.0030     4.5990 ha         1 OSA       0.130000
     40 HOAL         4.0990    -0.8450    -0.3290 ho         1 OSA       0.392000
     41 HAP          7.6220    -0.0030     3.5990 ha         1 OSA       0.160000
     42 HAQ         10.0540    -0.0060     3.7020 ha         1 OSA       0.111000
     43 HAT          7.7400     0.1220    -0.6890 ha         1 OSA       0.110000
     44 HAU          9.9230    -0.0030    -1.8460 ha         1 OSA       0.126000
     45 HAW         13.5150    -0.0040     0.4450 ha         1 OSA       0.123000
     46 HOAY        13.0270     0.6740     2.7880 ho         1 OSA       0.390000
@<TRIPOS>BOND
     1     1     2 ar  
     2     1     6 ar  
     3     1    34 1   
     4     2     3 ar  
     5     2    35 1   
     6     3     4 ar  
     7     3    11 ar  
     8     4     5 ar  
     9     4     8 ar  
    10     5     6 ar  
    11     5    36 1   
    12     6     7 1   
    13     7    37 1   
    14     7    38 1   
    15     8     9 ar  
    16     8    39 1   
    17     9    10 ar  
    18     9    30 1   
    19    10    11 ar  
    20    10    13 1   
    21    11    12 1   
    22    12    40 1   
    23    13    14 2   
    24    14    15 1   
    25    15    16 ar  
    26    15    20 ar  
    27    16    17 ar  
    28    16    41 1   
    29    17    18 ar  
    30    17    42 1   
    31    18    19 ar  
    32    18    24 ar  
    33    19    20 ar  
    34    19    21 ar  
    35    20    43 1   
    36    21    22 ar  
    37    21    44 1   
    38    22    23 ar  
    39    22    26 1   
    40    23    24 ar  
    41    23    45 1   
    42    24    25 1   
    43    25    46 1   
    44    26    27 1   
    45    26    28 1   
    46    26    29 1   
    47    30    31 1   
    48    30    32 1   
    49    30    33 1   
@<TRIPOS>SUBSTRUCTURE
     1 OSA         1 TEMP              0 ****  ****    0 ROOT
