@<TRIPOS>MOLECULE
molecule
   24    24     1     0     0
SMALL
bcc


@<TRIPOS>ATOM
      1 O1           0.0000     0.0000     0.0000 o          1 OSB      -0.826800
      2 O2           1.9540    -0.0020    -1.0520 o          1 OSB      -0.826800
      3 C7           1.3480     0.0000     0.0000 c          1 OSB       0.877200
      4 C6           4.1760     0.1050     2.5020 ca         1 OSB      -0.135000
      5 C5           3.4750     0.0000     3.6880 ca         1 OSB      -0.165000
      6 C4           2.0950    -0.1070     3.6800 ca         1 OSB      -0.171000
      7 C3           1.4000    -0.1100     2.4850 ca         1 OSB      -0.103000
      8 C2           2.0860     0.0020     1.2800 ca         1 OSB      -0.077600
      9 C1           3.4920     0.1050     1.2860 ca         1 OSB      -0.116600
     10 C8           4.2320     0.2170     0.0190 c          1 OSB       0.607700
     11 C9           4.8100    -1.0140    -0.6280 c3         1 OSB      -0.142400
     12 O3           4.3770     1.3020    -0.5030 o          1 OSB      -0.554100
     13 C10          5.5240    -0.6230    -1.9240 c3         1 OSB      -0.167400
     14 C11          6.1020    -1.8540    -2.5700 c          1 OSB       0.893600
     15 O4           5.9570    -2.9340    -2.0500 o          1 OSB      -0.877300
     16 O5           6.7790    -1.7520    -3.7250 o          1 OSB      -0.877300
     17 H61          5.2520     0.2310     2.5180 ha         1 OSB       0.113000
     18 H51          4.0090     0.0020     4.6300 ha         1 OSB       0.091000
     19 H41          1.5570    -0.1900     4.6160 ha         1 OSB       0.091000
     20 H31          0.3210    -0.2020     2.4870 ha         1 OSB       0.146000
     21 H91          4.0120    -1.7120    -0.8530 hc         1 OSB       0.067700
     22 H92          5.5170    -1.4790     0.0480 hc         1 OSB       0.067700
     23 H101         6.3220     0.0760    -1.7000 hc         1 OSB       0.042200
     24 H102         4.8170    -0.1580    -2.6000 hc         1 OSB       0.042200
@<TRIPOS>BOND
     1     1     3 1
     2     2     3 1
     3     3     8 1
     4     4     5 ar
     5     4     9 ar
     6     4    17 1
     7     5     6 ar
     8     5    18 1
     9     6     7 ar
    10     6    19 1
    11     7     8 ar
    12     7    20 1
    13     8     9 ar
    14     9    10 1
    15    10    11 1
    16    10    12 2
    17    11    13 1
    18    11    21 1
    19    11    22 1
    20    13    14 1
    21    13    23 1
    22    13    24 1
    23    14    15 1
    24    14    16 1
@<TRIPOS>SUBSTRUCTURE
     1 OSB         1 TEMP              0 ****  ****    0 ROOT
