@<TRIPOS>MOLECULE
OSB
   24    24     1     0     0
SMALL
bcc


@<TRIPOS>ATOM
      1 O1         -0.1580    0.9990    0.4670 o         1 OSB     -0.832800
      2 O2          1.0340   -0.2270   -0.9650 o         1 OSB     -0.832800
      3 C7          0.8620    0.3140    0.1610 c         1 OSB      0.911200
      4 C6          4.1440   -0.2230    2.1240 ca        1 OSB     -0.124000
      5 C5          3.6390   -0.4540    3.3980 ca        1 OSB     -0.171000
      6 C4          2.2600   -0.4080    3.6130 ca        1 OSB     -0.164000
      7 C3          1.4060   -0.1430    2.5490 ca        1 OSB     -0.126000
      8 C2          1.9000    0.0840    1.2540 ca        1 OSB     -0.080600
      9 C1          3.2840    0.0560    1.0490 ca        1 OSB     -0.125600
     10 C8          3.9340    0.3190   -0.2690 c         1 OSB      0.612700
     11 C9          4.5500   -0.8870   -0.9190 c3        1 OSB     -0.166400
     12 O3          4.0060    1.4640   -0.7320 o         1 OSB     -0.567100
     13 C10         5.6970   -0.5580   -1.8470 c3        1 OSB     -0.178400
     14 C11         6.7630   -1.6610   -1.9030 c         1 OSB      0.903600
     15 O4          7.0660   -2.2940   -0.8470 o         1 OSB     -0.868800
     16 O5          7.3360   -1.8750   -3.0140 o         1 OSB     -0.868800
     17 H61         5.2300   -0.2700    1.9460 ha        1 OSB      0.132000
     18 H51         4.3210   -0.6750    4.2290 ha        1 OSB      0.097000
     19 H41         1.8550   -0.5840    4.6190 ha        1 OSB      0.091000
     20 H31         0.3160   -0.0890    2.7000 ha        1 OSB      0.136000
     21 H91         4.9180   -1.5880   -0.1200 hc        1 OSB      0.080700
     22 H92         3.7270   -1.4080   -1.4780 hc        1 OSB      0.080700
     23 H101        6.2080    0.3780   -1.5020 hc        1 OSB      0.029200
     24 H102        5.3140   -0.3660   -2.8800 hc        1 OSB      0.029200
@<TRIPOS>BOND
     1    1    3 1   
     2    2    3 1   
     3    3    8 1   
     4    4    5 ar  
     5    4    9 ar  
     6    4   17 1   
     7    5    6 ar  
     8    5   18 1   
     9    6    7 ar  
    10    6   19 1   
    11    7    8 ar  
    12    7   20 1   
    13    8    9 ar  
    14    9   10 1   
    15   10   11 1   
    16   10   12 2   
    17   11   13 1   
    18   11   21 1   
    19   11   22 1   
    20   13   14 1   
    21   13   23 1   
    22   13   24 1   
    23   14   15 1   
    24   14   16 1   
@<TRIPOS>SUBSTRUCTURE
     1 OSB         1 TEMP              0 ****  ****    0 ROOT
