@<TRIPOS>MOLECULE
OSF
   30    29     1     0     0
SMALL
bcc


@<TRIPOS>ATOM
      1 S          -0.1800   -0.0620   -0.0800 s6        1 OSF      1.698300
      2 O1          1.5420    0.0110    0.0980 os        1 OSF     -0.609500
      3 O2         -0.5940   -0.3580    1.2190 o         1 OSF     -0.755867
      4 O3         -0.4810    1.2290   -0.5150 o         1 OSF     -0.755867
      5 O4         -0.3150   -1.0800   -1.0200 o         1 OSF     -0.755867
      6 C1          2.0950    0.9420    0.9670 c3        1 OSF      0.208400
      7 C2          3.6140    0.8390    0.9000 c3        1 OSF     -0.089400
      8 C3          4.2630    1.8340    1.8360 c3        1 OSF     -0.078400
      9 C4          5.7730    1.7430    1.7780 c3        1 OSF     -0.078400
     10 C5          6.4250    2.7370    2.7150 c3        1 OSF     -0.079400
     11 C6          7.9340    2.6460    2.6550 c3        1 OSF     -0.079400
     12 C7          8.5860    3.6390    3.5930 c3        1 OSF     -0.080400
     13 C8         10.0890    3.5520    3.5370 c3        1 OSF     -0.091100
     14 H1          1.7690    1.9810    0.6760 h1        1 OSF      0.008700
     15 H1A         1.7440    0.7400    2.0180 h1        1 OSF      0.008700
     16 H2          3.9220   -0.2040    1.1680 hc        1 OSF      0.041200
     17 H2A         3.9470    1.0230   -0.1530 hc        1 OSF      0.041200
     18 H3          3.9160    1.6450    2.8860 hc        1 OSF      0.034200
     19 H3A         3.9400    2.8730    1.5630 hc        1 OSF      0.034200
     20 H4          6.0970    0.7030    2.0490 hc        1 OSF      0.035700
     21 H4A         6.1200    1.9330    0.7280 hc        1 OSF      0.035700
     22 H5          6.0770    2.5460    3.7650 hc        1 OSF      0.036700
     23 H5A         6.1000    3.7760    2.4440 hc        1 OSF      0.036700
     24 H6          8.2590    1.6060    2.9250 hc        1 OSF      0.037200
     25 H6A         8.2810    2.8370    1.6060 hc        1 OSF      0.037200
     26 H7          8.2580    4.6780    3.3230 hc        1 OSF      0.036700
     27 H7A         8.2370    3.4460    4.6420 hc        1 OSF      0.036700
     28 H8         10.5490    4.2920    4.2350 hc        1 OSF      0.028033
     29 H8A        10.4570    3.7660    2.5040 hc        1 OSF      0.028033
     30 H8B        10.4360    2.5310    3.8260 hc        1 OSF      0.028033
@<TRIPOS>BOND
     1    1    2 1   
     2    1    3 1   
     3    1    4 1   
     4    1    5 1   
     5    2    6 1   
     6    6    7 1   
     7    6   14 1   
     8    6   15 1   
     9    7    8 1   
    10    7   16 1   
    11    7   17 1   
    12    8    9 1   
    13    8   18 1   
    14    8   19 1   
    15    9   10 1   
    16    9   20 1   
    17    9   21 1   
    18   10   11 1   
    19   10   22 1   
    20   10   23 1   
    21   11   12 1   
    22   11   24 1   
    23   11   25 1   
    24   12   13 1   
    25   12   26 1   
    26   12   27 1   
    27   13   28 1   
    28   13   29 1   
    29   13   30 1   
@<TRIPOS>SUBSTRUCTURE
     1 OSF         1 TEMP              0 ****  ****    0 ROOT
