@<TRIPOS>MOLECULE
molecule
   30    29     1     0     0
SMALL
bcc


@<TRIPOS>ATOM
      1 S            0.0000     0.0000     0.0000 s6         1 OSF       1.569300
      2 O1           1.5210     0.0000     0.0000 os         1 OSF      -0.604500
      3 O2          -0.4200     0.0000     1.3930 o          1 OSF      -0.741533
      4 O3          -0.4200     1.2070    -0.6960 o          1 OSF      -0.741533
      5 O4          -0.4200    -1.2050    -0.6970 o          1 OSF      -0.741533
      6 C1           2.1030     0.9230     0.9230 c3         1 OSF       0.181400
      7 C2           3.6280     0.8370     0.8370 c3         1 OSF      -0.083400
      8 C3           4.2500     1.8250     1.8260 c3         1 OSF      -0.084400
      9 C4           5.7760     1.7390     1.7400 c3         1 OSF      -0.080400
     10 C5           6.3980     2.7270     2.7300 c3         1 OSF      -0.083400
     11 C6           7.9240     2.6420     2.6430 c3         1 OSF      -0.082400
     12 C7           8.5460     3.6300     3.6330 c3         1 OSF      -0.084400
     13 C8          10.0710     3.5440     3.5470 c3         1 OSF      -0.092100
     14 H1           1.7830     1.9280     0.6780 h1         1 OSF       0.047200
     15 H1A          1.7830     0.6770     1.9290 h1         1 OSF       0.047200
     16 H2           3.9480    -0.1690     1.0830 hc         1 OSF       0.046700
     17 H2A          3.9480     1.0820    -0.1680 hc         1 OSF       0.046700
     18 H3           3.9310     2.8310     1.5810 hc         1 OSF       0.040200
     19 H3A          3.9300     1.5800     2.8310 hc         1 OSF       0.040200
     20 H4           6.0950     1.9850     0.7350 hc         1 OSF       0.039700
     21 H4A          6.0950     0.7330     1.9850 hc         1 OSF       0.039700
     22 H5           6.0780     3.7330     2.4860 hc         1 OSF       0.039700
     23 H5A          6.0790     2.4810     3.7350 hc         1 OSF       0.039700
     24 H6           8.2440     1.6360     2.8880 hc         1 OSF       0.039700
     25 H6A          8.2430     2.8890     1.6380 hc         1 OSF       0.039700
     26 H7           8.2260     3.3830     4.6380 hc         1 OSF       0.038700
     27 H7A          8.2260     4.6350     3.3880 hc         1 OSF       0.038700
     28 H8          10.5120     4.2430     4.2470 hc         1 OSF       0.029033
     29 H8A         10.3910     3.7900     2.5420 hc         1 OSF       0.029033
     30 H8B         10.3910     2.5380     3.7920 hc         1 OSF       0.029033
@<TRIPOS>BOND
     1     1     2 1
     2     1     3 1
     3     1     4 1
     4     1     5 1
     5     2     6 1
     6     6     7 1
     7     7     8 1
     8     8     9 1
     9     9    10 1
    10    10    11 1
    11    11    12 1
    12    12    13 1
    13     6    14 1
    14     6    15 1
    15     7    16 1
    16     7    17 1
    17     8    18 1
    18     8    19 1
    19     9    20 1
    20     9    21 1
    21    10    22 1
    22    10    23 1
    23    11    24 1
    24    11    25 1
    25    12    26 1
    26    12    27 1
    27    13    28 1
    28    13    29 1
    29    13    30 1
@<TRIPOS>SUBSTRUCTURE
     1 OSF         1 TEMP              0 ****  ****    0 ROOT
