@<TRIPOS>MOLECULE
molecule
   15    14     1     0     0
SMALL
bcc


@<TRIPOS>ATOM
      1 C24          0.0000     0.0000     0.0000 c          1 OSL       0.877600
      2 C25          1.5060     0.0000     0.0000 c3         1 OSL       0.044100
      3 C26          2.0160     0.0000     1.4420 c3         1 OSL       0.186400
      4 O66         -0.6050    -0.9490    -0.4420 o          1 OSL      -0.856300
      5 O67          1.9830    -1.1680    -0.6740 oh         1 OSL      -0.593800
      6 O68          3.4410     0.1180     1.4430 os         1 OSL      -0.617500
      7 S69          4.0600     0.1290     2.8340 s6         1 OSL       1.583300
      8 O70          5.4330     0.4500     2.6590 o          1 OSL      -0.760867
      9 O71          3.1830     0.8860     3.6570 o          1 OSL      -0.760867
     10 O72          4.0160    -1.2990     3.3580 o          1 OSL      -0.760867
     11 O7          -0.6710     1.0510     0.4960 o          1 OSL      -0.856300
     12 H25          1.8670     0.8840    -0.5110 h1         1 OSL       0.018700
     13 H26          1.7300    -0.9260     1.9270 h1         1 OSL       0.066700
     14 H26A         1.5840     0.8360     1.9780 h1         1 OSL       0.066700
     15 HO67         2.2800    -0.9330    -1.5370 ho         1 OSL       0.363000
@<TRIPOS>BOND
     1     1     2 1
     2     1     4 1
     3     1    11 1
     4     2     3 1
     5     2     5 1
     6     2    12 1
     7     3     6 1
     8     3    13 1
     9     3    14 1
    10     5    15 1
    11     6     7 1
    12     7     8 1
    13     7     9 1
    14     7    10 1
@<TRIPOS>SUBSTRUCTURE
     1 OSL         1 TEMP              0 ****  ****    0 ROOT
