@<TRIPOS>MOLECULE
OSL
   15    14     1     0     0
SMALL
bcc


@<TRIPOS>ATOM
      1 C24         0.0520    0.1450   -0.2310 c         1 OSL      0.887600
      2 C25         1.5890    0.1420   -0.0610 c3        1 OSL      0.021100
      3 C26         1.9760   -0.0520    1.4110 c3        1 OSL      0.190400
      4 O66        -0.4850   -0.9290   -0.6450 o         1 OSL     -0.861800
      5 O67         2.1660   -0.8760   -0.8680 oh        1 OSL     -0.636800
      6 O68         3.2450    0.4880    1.6510 os        1 OSL     -0.613500
      7 S69         4.1470    0.0850    3.0410 s6        1 OSL      1.686300
      8 O70         5.4420    0.4900    2.6830 o         1 OSL     -0.771533
      9 O71         3.5650    0.8480    4.0640 o         1 OSL     -0.771533
     10 O72         3.9810   -1.2990    3.1940 o         1 OSL     -0.771533
     11 O7         -0.6030    1.1980    0.0090 o         1 OSL     -0.861800
     12 H25         2.0280    1.1030   -0.4390 h1        1 OSL      0.059700
     13 H26         1.9750   -1.1480    1.6620 h1        1 OSL      0.019200
     14 H26A        1.2260    0.4840    2.0560 h1        1 OSL      0.019200
     15 HO67        1.5210   -1.5990   -0.8920 ho        1 OSL      0.404000
@<TRIPOS>BOND
     1    1    2 1   
     2    1    4 1   
     3    1   11 1   
     4    2    3 1   
     5    2    5 1   
     6    2   12 1   
     7    3    6 1   
     8    3   13 1   
     9    3   14 1   
    10    5   15 1   
    11    6    7 1   
    12    7    8 1   
    13    7    9 1   
    14    7   10 1   
@<TRIPOS>SUBSTRUCTURE
     1 OSL         1 TEMP              0 ****  ****    0 ROOT
