@<TRIPOS>MOLECULE
OSM
   10     9     1     0     0
SMALL
bcc


@<TRIPOS>ATOM
      1 O            0.0000     0.0000     0.0000 o          1 OSM      -0.256200
      2 S            1.4220     0.0000     0.0000 s4         1 OSM      -0.057100
      3 C            2.0260     0.0000     1.7110 c3         1 OSM       0.005100
      4 N            3.4940    -0.0000     1.7120 nz         1 OSM       0.150400
      5 HS           2.0850     0.6640    -0.9380 hs         1 OSM       0.285000
      6 H1           1.6640     0.8850     2.2210 hx         1 OSM       0.116700
      7 H2           1.6640    -0.8840     2.2210 hx         1 OSM       0.116700
      8 HN1          3.8280    -0.7720     1.1690 hn         1 OSM       0.213467
      9 HN2          3.8280     0.8560     1.3150 hn         1 OSM       0.213467
     10 HN3          3.8270    -0.0840     2.6520 hn         1 OSM       0.213467
@<TRIPOS>BOND
     1     1     2 2   
     2     2     3 1   
     3     2     5 1   
     4     3     4 1   
     5     3     6 1   
     6     3     7 1   
     7     4     8 1   
     8     4     9 1   
     9     4    10 1   
@<TRIPOS>SUBSTRUCTURE
     1 OSM         1 TEMP              0 ****  ****    0 ROOT
