@<TRIPOS>MOLECULE
molecule
   33    34     1     0     0
SMALL
bcc


@<TRIPOS>ATOM
      1 O3           0.0000     0.0000     0.0000 o          1 OSP      -0.606800
      2 S2           1.4210     0.0000     0.0000 s6         1 OSP       1.300900
      3 O4           2.1590     0.8990    -0.8170 o          1 OSP      -0.606800
      4 C7           2.0660     0.0000     1.7020 c3         1 OSP      -0.194600
      5 C8           1.6140    -1.2920     2.3900 c3         1 OSP      -0.068400
      6 C9           2.1930    -2.4990     1.6570 c3         1 OSP      -0.120400
      7 C10          1.5270    -2.6700     0.2930 c3         1 OSP       0.211800
      8 N2           1.8390    -1.5120    -0.5560 nh         1 OSP      -0.657900
      9 C4           2.4700    -1.6740    -1.7920 ca         1 OSP       0.280600
     10 C3           3.2610    -2.7910    -2.0270 ca         1 OSP      -0.172500
     11 C2           3.8830    -2.9490    -3.2510 ca         1 OSP       0.000500
     12 C5           2.3020    -0.7230    -2.7890 ca         1 OSP      -0.172500
     13 C6           2.9270    -0.8860    -4.0100 ca         1 OSP       0.000500
     14 C1           3.7190    -1.9960    -4.2400 ca         1 OSP      -0.376500
     15 S1           4.5150    -2.2010    -5.7980 sy         1 OSP       1.223200
     16 O1           4.6350    -0.9010    -6.3620 o          1 OSP      -0.522300
     17 O2           5.6270    -3.0560    -5.5710 o          1 OSP      -0.522300
     18 N1           3.4720    -3.0390    -6.7750 nz         1 OSP      -0.805500
     19 H71          1.6750     0.8550     2.2390 h1         1 OSP       0.116200
     20 H72          3.1490     0.0400     1.6800 h1         1 OSP       0.116200
     21 H81          0.5320    -1.3470     2.3740 hc         1 OSP       0.075200
     22 H82          1.9630    -1.2940     3.4160 hc         1 OSP       0.075200
     23 H91          2.0240    -3.3900     2.2490 hc         1 OSP       0.070200
     24 H92          3.2570    -2.3530     1.5170 hc         1 OSP       0.070200
     25 H101         1.8990    -3.5720    -0.1780 h1         1 OSP       0.073700
     26 H102         0.4540    -2.7410     0.4230 h1         1 OSP       0.073700
     27 H3           3.3900    -3.5370    -1.2530 ha         1 OSP       0.178000
     28 H2           4.5020    -3.8180    -3.4340 ha         1 OSP       0.157000
     29 H5           1.6820     0.1470    -2.6100 ha         1 OSP       0.178000
     30 H6           2.7980    -0.1430    -4.7870 ha         1 OSP       0.157000
     31 HN11         3.8930    -3.1760    -7.6720 hn         1 OSP       0.490133
     32 HN12         2.6230    -2.5190    -6.8810 hn         1 OSP       0.490133
     33 H13          3.2700    -3.9280    -6.3620 hn         1 OSP       0.490133
@<TRIPOS>BOND
     1     1     2 2
     2     2     4 1
     3     2     3 2
     4     2     8 1
     5     4     5 1
     6     4    19 1
     7     4    20 1
     8     5     6 1
     9     5    21 1
    10     5    22 1
    11     6     7 1
    12     6    23 1
    13     6    24 1
    14     7     8 1
    15     7    25 1
    16     7    26 1
    17     8     9 1
    18     9    10 ar
    19     9    12 ar
    20    10    11 ar
    21    10    27 1
    22    11    14 ar
    23    11    28 1
    24    12    13 ar
    25    12    29 1
    26    13    14 ar
    27    13    30 1
    28    14    15 1
    29    15    18 1
    30    15    16 2
    31    15    17 2
    32    18    31 1
    33    18    32 1
    34    33    18 1
@<TRIPOS>SUBSTRUCTURE
     1 OSP         1 TEMP              0 ****  ****    0 ROOT
