@<TRIPOS>MOLECULE
OSS
   41    40     1     0     0
SMALL
bcc


@<TRIPOS>ATOM
      1 C1           0.0000     0.0000     0.0000 c          1 OSS       0.977600
      2 O1           1.3430     0.0000     0.0000 o          1 OSS      -0.896300
      3 O2          -0.6030     0.0000     1.0460 o          1 OSS      -0.896300
      4 C2          -0.7540    -0.0000    -1.3050 c3         1 OSS      -0.136400
      5 C3          -2.2570     0.0010    -1.0250 c3         1 OSS      -0.013400
      6 C4          -3.0230    -0.0000    -2.3500 c3         1 OSS      -0.042400
      7 C5          -4.5260    -0.0010    -2.0700 c3         1 OSS      -0.033400
      8 C6          -5.2900     0.1300    -3.3890 c3         1 OSS       0.042400
      9 C7          -5.0470    -1.1150    -4.2440 c3         1 OSS      -0.000400
     10 C8          -5.8120    -0.9870    -5.5620 c3         1 OSS       0.105700
     11 S9          -5.5220    -2.4620    -6.5760 ss         1 OSS      -0.318200
     12 C10         -6.5190    -2.0450    -8.0330 c3         1 OSS      -0.020100
     13 N11         -6.4300    -3.1330    -9.0160 nz         1 OSS       0.127400
     14 S12         -7.0640     0.2900    -3.0470 ss         1 OSS      -0.256100
     15 S13         -7.1040     2.1820    -2.2600 ss         1 OSS      -0.132100
     16 C14         -7.3660     3.1470    -3.7730 c3         1 OSS       0.042700
     17 C15         -8.6790     2.7190    -4.4310 c3         1 OSS       0.206400
     18 O16         -8.8840     3.4790    -5.6240 oh         1 OSS      -0.594800
     19 H21         -0.4910     0.8840    -1.8730 hc         1 OSS       0.002700
     20 H22         -0.4920    -0.8850    -1.8730 hc         1 OSS       0.002700
     21 H31         -2.5180     0.8860    -0.4580 hc         1 OSS       0.027700
     22 H32         -2.5190    -0.8830    -0.4560 hc         1 OSS       0.027700
     23 H41         -2.7610     0.8840    -2.9190 hc         1 OSS       0.003700
     24 H42         -2.7610    -0.8850    -2.9180 hc         1 OSS       0.003700
     25 H51         -4.7740     0.8340    -1.4260 hc         1 OSS       0.045200
     26 H52         -4.8030    -0.9280    -1.5830 hc         1 OSS       0.045200
     27 H6          -4.9440     1.0070    -3.9220 h1         1 OSS       0.058700
     28 H71         -3.9870    -1.2110    -4.4490 hc         1 OSS       0.056200
     29 H72         -5.3920    -1.9930    -3.7100 hc         1 OSS       0.056200
     30 H81         -6.8710    -0.8920    -5.3570 h1         1 OSS       0.058700
     31 H82         -5.4670    -0.1090    -6.0960 h1         1 OSS       0.058700
     32 H101        -7.5520    -1.9100    -7.7360 hx         1 OSS       0.099200
     33 H102        -6.1470    -1.1280    -8.4740 hx         1 OSS       0.099200
     34 HN11        -6.7740    -3.9800    -8.6080 hn         1 OSS       0.222800
     35 HN12        -5.4760    -3.2580    -9.2900 hn         1 OSS       0.222800
     36 H141        -6.5450     2.9740    -4.4580 h1         1 OSS       0.062200
     37 H142        -7.4130     4.2010    -3.5260 h1         1 OSS       0.062200
     38 H151        -8.6320     1.6650    -4.6780 h1         1 OSS       0.004200
     39 H152        -9.5000     2.8930    -3.7460 h1         1 OSS       0.004200
     40 HO6         -9.7260     3.2670    -5.9910 ho         1 OSS       0.392000
     41 H113        -6.9890    -2.9070    -9.8150 hn         1 OSS       0.222800
@<TRIPOS>BOND
     1     1     2 1   
     2     1     3 1   
     3     1     4 1   
     4     4     5 1   
     5     4    19 1   
     6     4    20 1   
     7     5     6 1   
     8     5    21 1   
     9     5    22 1   
    10     6     7 1   
    11     6    23 1   
    12     6    24 1   
    13     7     8 1   
    14     7    25 1   
    15     7    26 1   
    16     8     9 1   
    17     8    14 1   
    18     8    27 1   
    19     9    10 1   
    20     9    28 1   
    21     9    29 1   
    22    10    11 1   
    23    10    30 1   
    24    10    31 1   
    25    11    12 1   
    26    12    13 1   
    27    12    32 1   
    28    12    33 1   
    29    13    34 1   
    30    13    35 1   
    31    13    41 1   
    32    14    15 1   
    33    15    16 1   
    34    16    17 1   
    35    16    36 1   
    36    16    37 1   
    37    17    18 1   
    38    17    38 1   
    39    17    39 1   
    40    18    40 1   
@<TRIPOS>SUBSTRUCTURE
     1 OSS         1 TEMP              0 ****  ****    0 ROOT
