@<TRIPOS>MOLECULE
OST
   40    41     1     0     0
SMALL
bcc


@<TRIPOS>ATOM
      1 C5          0.4310   -1.7460   -0.5150 c3        1 OST      0.125700
      2 O1          1.6240   -0.9610   -0.5050 os        1 OST     -0.421900
      3 C1          2.1280   -0.6400    0.7270 c         1 OST      0.651300
      4 O3          1.4980   -1.0310    1.7200 o         1 OST     -0.573000
      5 C2          3.3770    0.1340    0.7190 ce        1 OST     -0.177400
      6 C3          3.8880    0.4590    1.9350 c2        1 OST      0.111100
      7 O2          5.0740    1.1390    2.0190 os        1 OST     -0.309900
      8 C4          5.4270    1.5350    3.3470 c3        1 OST      0.107700
      9 C6          4.0070    0.4920   -0.5510 ca        1 OST     -0.009800
     10 C11         5.2000   -0.1440   -0.9230 ca        1 OST     -0.104000
     11 C7          3.4460    1.4630   -1.4010 ca        1 OST     -0.028800
     12 C8          4.0780    1.7590   -2.6180 ca        1 OST     -0.133000
     13 C9          5.2580    1.1160   -2.9800 ca        1 OST     -0.126000
     14 C10         5.8220    0.1660   -2.1300 ca        1 OST     -0.135000
     15 C12         2.1690    2.0920   -1.0820 ce        1 OST     -0.105200
     16 C13         1.9240    3.2750   -0.5060 cf        1 OST     -0.103200
     17 C14         2.8540    4.2730   -0.0040 ca        1 OST     -0.053800
     18 C15         4.1550    4.4250   -0.5000 ca        1 OST     -0.117000
     19 C16         4.9960    5.4130    0.0100 ca        1 OST     -0.135000
     20 C19         2.4130    5.1400    1.0130 ca        1 OST     -0.117000
     21 C18         3.2570    6.1210    1.5230 ca        1 OST     -0.135000
     22 C17         4.5520    6.2620    1.0220 ca        1 OST     -0.130000
     23 H51        -0.3960   -1.1900   -0.0110 h1        1 OST      0.050367
     24 H52         0.2250   -1.8940   -1.6030 h1        1 OST      0.050367
     25 H53         0.6080   -2.7190    0.0040 h1        1 OST      0.050367
     26 H3          3.3820    0.1870    2.8800 h4        1 OST      0.160000
     27 H41         4.6600    2.2320    3.7610 h1        1 OST      0.051367
     28 H42         6.4070    2.0570    3.2110 h1        1 OST      0.051367
     29 H43         5.5390    0.6380    4.0030 h1        1 OST      0.051367
     30 H11         5.6450   -0.8910   -0.2500 ha        1 OST      0.134000
     31 H8          3.6290    2.5060   -3.2900 ha        1 OST      0.135000
     32 H9          5.7430    1.3580   -3.9370 ha        1 OST      0.131000
     33 H10         6.7560   -0.3420   -2.4120 ha        1 OST      0.131000
     34 H12         1.3100    1.4490   -1.3620 ha        1 OST      0.138000
     35 H13         0.8610    3.5530   -0.3510 ha        1 OST      0.121000
     36 H15         4.5170    3.7580   -1.2970 ha        1 OST      0.137000
     37 H16         6.0150    5.5190   -0.3900 ha        1 OST      0.130000
     38 H19         1.3910    5.0370    1.4090 ha        1 OST      0.137000
     39 H18         2.9010    6.7900    2.3200 ha        1 OST      0.130000
     40 H17         5.2170    7.0400    1.4230 ha        1 OST      0.129000
@<TRIPOS>BOND
     1    1    2 1   
     2    1   23 1   
     3    1   24 1   
     4    1   25 1   
     5    2    3 1   
     6    3    4 2   
     7    3    5 1   
     8    5    6 2   
     9    5    9 1   
    10    6    7 1   
    11    6   26 1   
    12    7    8 1   
    13    8   27 1   
    14    8   28 1   
    15    8   29 1   
    16    9   10 ar  
    17    9   11 ar  
    18   10   14 ar  
    19   10   30 1   
    20   11   12 ar  
    21   11   15 1   
    22   12   13 ar  
    23   12   31 1   
    24   13   14 ar  
    25   13   32 1   
    26   14   33 1   
    27   15   16 2   
    28   15   34 1   
    29   16   17 1   
    30   16   35 1   
    31   17   18 ar  
    32   17   20 ar  
    33   18   19 ar  
    34   18   36 1   
    35   19   22 ar  
    36   19   37 1   
    37   20   21 ar  
    38   20   38 1   
    39   21   22 ar  
    40   21   39 1   
    41   22   40 1   
@<TRIPOS>SUBSTRUCTURE
     1 OST         1 TEMP              0 ****  ****    0 ROOT
