@<TRIPOS>MOLECULE
molecule
   40    41     1     0     0
SMALL
bcc


@<TRIPOS>ATOM
      1 C5           0.0000     0.0000     0.0000 c3         1 OST       0.147700
      2 O1           1.4520     0.0000     0.0000 os         1 OST      -0.422900
      3 C1           2.1270     0.0000     1.1680 c          1 OST       0.672300
      4 O3           1.5190    -0.0010     2.2210 o          1 OST      -0.580000
      5 C2           3.5930    -0.0010     1.1680 ce         1 OST      -0.208400
      6 C3           4.2730    -0.0010     2.3440 c2         1 OST       0.134100
      7 O2           5.6190    -0.0010     2.3440 os         1 OST      -0.323900
      8 C4           6.3460    -0.0020     3.6010 c3         1 OST       0.134700
      9 C6           4.3330    -0.0010    -0.1140 ca         1 OST      -0.011800
     10 C11          4.9530    -1.1640    -0.5650 ca         1 OST      -0.105000
     11 C7           4.4100     1.1730    -0.8890 ca         1 OST      -0.036800
     12 C8           5.1160     1.1580    -2.0930 ca         1 OST      -0.123000
     13 C9           5.7230    -0.0030    -2.5220 ca         1 OST      -0.127000
     14 C10          5.6420    -1.1590    -1.7620 ca         1 OST      -0.130000
     15 C12          3.7600     2.4090    -0.4260 ce         1 OST      -0.095200
     16 C13          3.8450     3.5300    -1.1640 cf         1 OST      -0.119200
     17 C14          3.1950     4.7670    -0.7000 ca         1 OST      -0.052800
     18 C15          3.2800     5.9350    -1.4640 ca         1 OST      -0.121000
     19 C16          2.6690     7.0900    -1.0230 ca         1 OST      -0.127500
     20 C19          2.4840     4.7800     0.5040 ca         1 OST      -0.121000
     21 C18          1.8820     5.9440     0.9340 ca         1 OST      -0.127500
     22 C17          1.9710     7.0950     0.1720 ca         1 OST      -0.130000
     23 H51         -0.3610     0.0310    -1.0210 h1         1 OST       0.047033
     24 H52         -0.3610    -0.8990     0.4840 h1         1 OST       0.047033
     25 H53         -0.3610     0.8690     0.5370 h1         1 OST       0.047033
     26 H3           3.7320    -0.0010     3.2820 h4         1 OST       0.151000
     27 H41          7.4110    -0.0020     3.4040 h1         1 OST       0.047700
     28 H42          6.0840    -0.8870     4.1690 h1         1 OST       0.047700
     29 H43          6.0840     0.8820     4.1700 h1         1 OST       0.047700
     30 H11          4.8950    -2.0720     0.0230 ha         1 OST       0.132000
     31 H8           5.1820     2.0570    -2.6940 ha         1 OST       0.132000
     32 H9           6.2680    -0.0110    -3.4580 ha         1 OST       0.127000
     33 H10          6.1230    -2.0660    -2.1090 ha         1 OST       0.127000
     34 H12          3.2140     2.4150     0.5090 ha         1 OST       0.136000
     35 H13          4.3920     3.5230    -2.0990 ha         1 OST       0.133000
     36 H15          3.8260     5.9320    -2.3990 ha         1 OST       0.132000
     37 H16          2.7350     7.9950    -1.6150 ha         1 OST       0.128500
     38 H19          2.4120     3.8790     1.1020 ha         1 OST       0.132000
     39 H18          1.3320     5.9550     1.8670 ha         1 OST       0.128500
     40 H17          1.4950     8.0060     0.5140 ha         1 OST       0.127000
@<TRIPOS>BOND
     1     1     2 1
     2     1    23 1
     3     1    24 1
     4     1    25 1
     5     2     3 1
     6     3     4 2
     7     3     5 1
     8     5     6 2
     9     5     9 1
    10     6     7 1
    11     6    26 1
    12     7     8 1
    13     8    27 1
    14     8    28 1
    15     8    29 1
    16     9    10 ar
    17     9    11 ar
    18    10    14 ar
    19    10    30 1
    20    11    12 ar
    21    11    15 1
    22    12    13 ar
    23    12    31 1
    24    13    14 ar
    25    13    32 1
    26    14    33 1
    27    15    16 2
    28    15    34 1
    29    16    17 1
    30    16    35 1
    31    17    18 ar
    32    17    20 ar
    33    18    19 ar
    34    18    36 1
    35    19    22 ar
    36    19    37 1
    37    20    21 ar
    38    20    38 1
    39    21    22 ar
    40    21    39 1
    41    22    40 1
@<TRIPOS>SUBSTRUCTURE
     1 OST         1 TEMP              0 ****  ****    0 ROOT
