@<TRIPOS>MOLECULE
OSU
   68    69     1     0     0
SMALL
bcc


@<TRIPOS>ATOM
      1 C1         -0.3130    0.2450    0.2090 c3        1 OSU      0.319900
      2 C2          1.2120    0.0300    0.2850 c3        1 OSU      0.084100
      3 C3          1.6730   -0.0320    1.7470 c3        1 OSU      0.111100
      4 C4          1.1800    1.2230    2.4850 c3        1 OSU      0.123100
      5 C5         -0.3460    1.3310    2.3480 c3        1 OSU      0.105100
      6 C6         -0.8520    2.6400    2.9630 c3        1 OSU      0.142400
      7 O1         -0.9930   -0.8470    0.8130 os        1 OSU     -0.470600
      8 O2          1.6140   -1.1860   -0.3170 oh        1 OSU     -0.604800
      9 O3          3.0880   -0.0280    1.8370 oh        1 OSU     -0.609800
     10 O4          1.4700    1.1330    3.8690 oh        1 OSU     -0.595800
     11 O5         -0.7270    1.3620    0.9660 os        1 OSU     -0.423600
     12 O6         -2.2570    2.6470    3.0540 oh        1 OSU     -0.606800
     13 C1'        -1.1550   -2.4540   -1.0380 c3        1 OSU      0.120400
     14 C2'        -1.8850   -1.5930    0.0030 c3        1 OSU      0.278600
     15 C3'        -2.7900   -2.3980    0.9740 c3        1 OSU      0.109100
     16 C4'        -4.0870   -1.5540    1.0670 c3        1 OSU      0.085100
     17 C5'        -3.9770   -0.4920   -0.0430 c3        1 OSU      0.142100
     18 C6'        -4.0630    0.9280    0.5110 c3        1 OSU      0.114400
     19 O1'        -0.6840   -1.6770   -2.1170 oh        1 OSU     -0.612800
     20 O2'        -2.7000   -0.6570   -0.6880 os        1 OSU     -0.443600
     21 O3'        -2.2170   -2.6340    2.2320 oh        1 OSU     -0.576800
     22 O4'        -5.2280   -2.3400    0.7810 oh        1 OSU     -0.586800
     23 O6'        -4.6050    1.7290   -0.5500 os        1 OSU     -0.440900
     24 C1N        -4.3950    3.0790   -0.4880 c         1 OSU      0.643100
     25 C2N        -4.9660    3.8020   -1.6680 c3        1 OSU     -0.126400
     26 C3N        -5.5660    5.1290   -1.2530 c3        1 OSU     -0.079400
     27 C4N        -6.0150    5.9170   -2.4650 c3        1 OSU     -0.078400
     28 C5N        -6.6330    7.2370   -2.0570 c3        1 OSU     -0.079400
     29 C6N        -7.0770    8.0310   -3.2660 c3        1 OSU     -0.079400
     30 C7N        -7.6980    9.3510   -2.8590 c3        1 OSU     -0.080400
     31 C8N        -8.1400   10.1470   -4.0600 c3        1 OSU     -0.093100
     32 O1N        -3.7790    3.5350    0.4780 o         1 OSU     -0.553000
     33 H1         -0.6570    0.4420   -0.8440 h2        1 OSU      0.104700
     34 H2          1.7100    0.8950   -0.2380 h1        1 OSU      0.062700
     35 H3          1.2620   -0.9600    2.2330 h1        1 OSU      0.074700
     36 H4          1.6800    2.1350    2.0520 h1        1 OSU      0.057700
     37 H5         -0.8390    0.4520    2.8460 h1        1 OSU      0.072700
     38 H61        -0.4790    3.5140    2.3680 h1        1 OSU      0.062700
     39 H62        -0.4780    2.6980    4.0210 h1        1 OSU      0.062700
     40 HO2         1.2460   -1.1970   -1.2120 ho        1 OSU      0.430000
     41 HO3         3.3990   -0.7790    1.3150 ho        1 OSU      0.427000
     42 HO4         2.4160    0.9380    3.9360 ho        1 OSU      0.424000
     43 HO6        -2.6030    2.8330    2.1700 ho        1 OSU      0.426000
     44 H1'1       -1.8460   -3.2570   -1.4060 h1        1 OSU      0.075200
     45 H1'2       -0.2340   -2.9000   -0.5710 h1        1 OSU      0.075200
     46 H3'        -3.0090   -3.4190    0.5550 h1        1 OSU      0.100700
     47 H4'        -4.1760   -1.0890    2.0860 h1        1 OSU      0.069700
     48 H5'        -4.7480   -0.6570   -0.8460 h1        1 OSU      0.108700
     49 H6'1       -4.7690    0.9900    1.3790 h1        1 OSU      0.079700
     50 H6'2       -3.0440    1.3020    0.8050 h1        1 OSU      0.079700
     51 H1'        -1.4510   -1.2560   -2.5300 ho        1 OSU      0.424000
     52 H6         -1.8510   -1.8000    2.5630 ho        1 OSU      0.429000
     53 H7         -5.3270   -2.9600    1.5140 ho        1 OSU      0.416000
     54 H2N1       -5.7370    3.1590   -2.1680 hc        1 OSU      0.079200
     55 H2N2       -4.1270    3.9640   -2.3980 hc        1 OSU      0.079200
     56 H3N1       -4.8080    5.7170   -0.6710 hc        1 OSU      0.058700
     57 H3N2       -6.4400    4.9500   -0.5730 hc        1 OSU      0.058700
     58 H4N1       -6.7600    5.3170   -3.0510 hc        1 OSU      0.041200
     59 H4N2       -5.1370    6.1060   -3.1380 hc        1 OSU      0.041200
     60 H5N1       -7.5130    7.0480   -1.3860 hc        1 OSU      0.042700
     61 H5N2       -5.8900    7.8340   -1.4660 hc        1 OSU      0.042700
     62 H6N1       -7.8200    7.4340   -3.8570 hc        1 OSU      0.039700
     63 H6N2       -6.1970    8.2210   -3.9360 hc        1 OSU      0.039700
     64 H7N1       -6.9540    9.9460   -2.2660 hc        1 OSU      0.039700
     65 H7N2       -8.5770    9.1600   -2.1890 hc        1 OSU      0.039700
     66 H8N1       -8.5950   11.1150   -3.7380 hc        1 OSU      0.033033
     67 H8N2       -8.9000    9.5800   -4.6510 hc        1 OSU      0.033033
     68 H8N3       -7.2730   10.3700   -4.7270 hc        1 OSU      0.033033
@<TRIPOS>BOND
     1    1    2 1   
     2    1    7 1   
     3    1   11 1   
     4    1   33 1   
     5    2    3 1   
     6    2    8 1   
     7    2   34 1   
     8    3    4 1   
     9    3    9 1   
    10    3   35 1   
    11    4    5 1   
    12    4   10 1   
    13    4   36 1   
    14    5    6 1   
    15    5   11 1   
    16    5   37 1   
    17    6   12 1   
    18    6   38 1   
    19    6   39 1   
    20    7   14 1   
    21    8   40 1   
    22    9   41 1   
    23   10   42 1   
    24   12   43 1   
    25   13   14 1   
    26   13   19 1   
    27   13   44 1   
    28   13   45 1   
    29   14   15 1   
    30   14   20 1   
    31   15   16 1   
    32   15   21 1   
    33   15   46 1   
    34   16   17 1   
    35   16   22 1   
    36   16   47 1   
    37   17   18 1   
    38   17   20 1   
    39   17   48 1   
    40   18   23 1   
    41   18   49 1   
    42   18   50 1   
    43   19   51 1   
    44   21   52 1   
    45   22   53 1   
    46   23   24 1   
    47   24   25 1   
    48   24   32 2   
    49   25   26 1   
    50   25   54 1   
    51   25   55 1   
    52   26   27 1   
    53   26   56 1   
    54   26   57 1   
    55   27   28 1   
    56   27   58 1   
    57   27   59 1   
    58   28   29 1   
    59   28   60 1   
    60   28   61 1   
    61   29   30 1   
    62   29   62 1   
    63   29   63 1   
    64   30   31 1   
    65   30   64 1   
    66   30   65 1   
    67   31   66 1   
    68   31   67 1   
    69   31   68 1   
@<TRIPOS>SUBSTRUCTURE
     1 OSU         1 TEMP              0 ****  ****    0 ROOT
