@<TRIPOS>MOLECULE
molecule
   68    69     1     0     0
SMALL
bcc


@<TRIPOS>ATOM
      1 C1           0.0000     0.0000     0.0000 c3         1 OSU       0.301900
      2 C2           1.5310     0.0000     0.0000 c3         1 OSU       0.119100
      3 C3           2.0320     0.0000     1.4470 c3         1 OSU       0.108100
      4 C4           1.3800     1.1720     2.1900 c3         1 OSU       0.110100
      5 C5          -0.1390     1.0840     2.0260 c3         1 OSU       0.121100
      6 C6          -0.8000     2.2310     2.7920 c3         1 OSU       0.153400
      7 O1          -0.4740    -1.1520     0.7000 os         1 OSU      -0.377600
      8 O2           2.0090    -1.1670    -0.6710 oh         1 OSU      -0.590800
      9 O3           3.4520     0.1520     1.4670 oh         1 OSU      -0.615800
     10 O4           1.7150     1.1060     3.5770 oh         1 OSU      -0.602800
     11 O5          -0.4820     1.1780     0.6450 os         1 OSU      -0.376600
     12 O6          -2.2200     2.0820     2.7430 oh         1 OSU      -0.604800
     13 C1'         -1.6980    -2.1680    -1.1270 c3         1 OSU       0.111400
     14 C2'         -1.7870    -1.4230     0.2060 c3         1 OSU       0.326600
     15 C3'         -2.5710    -2.2680     1.2270 c3         1 OSU       0.109100
     16 C4'         -3.8190    -1.4100     1.5550 c3         1 OSU       0.090100
     17 C5'         -3.8920    -0.4650     0.3300 c3         1 OSU       0.138100
     18 C6'         -4.6300     0.8260     0.6870 c3         1 OSU       0.164400
     19 O1'         -1.1740    -1.2940    -2.1280 oh         1 OSU      -0.599800
     20 O2'         -2.5070    -0.1910     0.0290 os         1 OSU      -0.371600
     21 O3'         -1.7860    -2.4870     2.4010 oh         1 OSU      -0.571800
     22 O4'         -4.9890    -2.2260     1.6470 oh         1 OSU      -0.601800
     23 O6'         -4.6070     1.7290    -0.4490 os         1 OSU      -0.425900
     24 C1N         -5.2800     2.8890    -0.4000 c          1 OSU       0.640100
     25 C2N         -5.2560     3.8250    -1.5800 c3         1 OSU      -0.123400
     26 C3N         -6.0980     5.0640    -1.2660 c3         1 OSU      -0.072400
     27 C4N         -6.0740     6.0140    -2.4630 c3         1 OSU      -0.084400
     28 C5N         -6.9160     7.2530    -2.1500 c3         1 OSU      -0.080400
     29 C6N         -6.8910     8.2040    -3.3470 c3         1 OSU      -0.081400
     30 C7N         -7.7320     9.4410    -3.0340 c3         1 OSU      -0.084400
     31 C8N         -7.7080    10.3930    -4.2320 c3         1 OSU      -0.092100
     32 O1N         -5.9060     3.1820     0.5910 o          1 OSU      -0.562000
     33 H1          -0.3580    -0.0210    -1.0220 h2         1 OSU       0.131700
     34 H2           1.8910     0.8870    -0.5060 h1         1 OSU       0.059700
     35 H3           1.7540    -0.9310     1.9260 h1         1 OSU       0.078700
     36 H4           1.7340     2.1060     1.7710 h1         1 OSU       0.048700
     37 H5          -0.4880     0.1360     2.4170 h1         1 OSU       0.093700
     38 H61         -0.5200     3.1750     2.3390 h1         1 OSU       0.032700
     39 H62         -0.4700     2.2140     3.8230 h1         1 OSU       0.032700
     40 HO2          2.6780    -0.9230    -1.2880 ho         1 OSU       0.405000
     41 HO3          3.8420    -0.5940     1.8930 ho         1 OSU       0.411000
     42 HO4          2.4050     1.7220     3.7630 ho         1 OSU       0.408000
     43 HO6         -2.6150     2.6130     3.4140 ho         1 OSU       0.398000
     44 H1'1        -1.0450    -3.0260    -1.0180 h1         1 OSU       0.037700
     45 H1'2        -2.6860    -2.5020    -1.4210 h1         1 OSU       0.037700
     46 H3'         -2.8700    -3.2110     0.7840 h1         1 OSU       0.060700
     47 H4'         -3.6640    -0.8440     2.4660 h1         1 OSU       0.083700
     48 H5'         -4.3680    -0.9640    -0.5040 h1         1 OSU       0.065700
     49 H6'1        -4.1440     1.2980     1.5330 h1         1 OSU       0.066700
     50 H6'2        -5.6570     0.5950     0.9440 h1         1 OSU       0.066700
     51 H1'         -1.3210    -1.6680    -2.9810 ho         1 OSU       0.404000
     52 H6          -1.8960    -3.3780     2.6910 ho         1 OSU       0.404000
     53 H7          -5.2550    -2.2930     2.5500 ho         1 OSU       0.412000
     54 H2N1        -5.6640     3.3220    -2.4480 hc         1 OSU       0.072200
     55 H2N2        -4.2350     4.1250    -1.7820 hc         1 OSU       0.072200
     56 H3N1        -7.1190     4.7640    -1.0630 hc         1 OSU       0.057700
     57 H3N2        -5.6910     5.5670    -0.3970 hc         1 OSU       0.057700
     58 H4N1        -6.4810     5.5110    -3.3320 hc         1 OSU       0.040700
     59 H4N2        -5.0530     6.3140    -2.6650 hc         1 OSU       0.040700
     60 H5N1        -6.5090     7.7550    -1.2810 hc         1 OSU       0.043700
     61 H5N2        -7.9370     6.9530    -1.9480 hc         1 OSU       0.043700
     62 H6N1        -7.2980     7.7010    -4.2160 hc         1 OSU       0.040700
     63 H6N2        -5.8690     8.5030    -3.5490 hc         1 OSU       0.040700
     64 H7N1        -8.7530     9.1420    -2.8310 hc         1 OSU       0.040700
     65 H7N2        -7.3240     9.9440    -2.1650 hc         1 OSU       0.040700
     66 H8N1        -8.3040    11.2700    -4.0080 hc         1 OSU       0.032700
     67 H8N2        -8.1170     9.8900    -5.1000 hc         1 OSU       0.032700
     68 H8N3        -6.6870    10.6920    -4.4350 hc         1 OSU       0.032700
@<TRIPOS>BOND
     1     1     2 1
     2     1     7 1
     3     1    11 1
     4     1    33 1
     5     2     3 1
     6     2     8 1
     7     2    34 1
     8     3     4 1
     9     3     9 1
    10     3    35 1
    11     4     5 1
    12     4    10 1
    13     4    36 1
    14     5     6 1
    15     5    11 1
    16     5    37 1
    17     6    12 1
    18     6    38 1
    19     6    39 1
    20     7    14 1
    21     8    40 1
    22     9    41 1
    23    10    42 1
    24    12    43 1
    25    13    14 1
    26    13    19 1
    27    13    44 1
    28    13    45 1
    29    14    15 1
    30    14    20 1
    31    15    16 1
    32    15    21 1
    33    15    46 1
    34    16    17 1
    35    16    22 1
    36    16    47 1
    37    17    18 1
    38    17    20 1
    39    17    48 1
    40    18    23 1
    41    18    49 1
    42    18    50 1
    43    19    51 1
    44    21    52 1
    45    22    53 1
    46    23    24 1
    47    24    25 1
    48    24    32 2
    49    25    26 1
    50    25    54 1
    51    25    55 1
    52    26    27 1
    53    26    56 1
    54    26    57 1
    55    27    28 1
    56    27    58 1
    57    27    59 1
    58    28    29 1
    59    28    60 1
    60    28    61 1
    61    29    30 1
    62    29    62 1
    63    29    63 1
    64    30    31 1
    65    30    64 1
    66    30    65 1
    67    31    66 1
    68    31    67 1
    69    31    68 1
@<TRIPOS>SUBSTRUCTURE
     1 OSU         1 TEMP              0 ****  ****    0 ROOT
