@<TRIPOS>MOLECULE
OT5
   61    64     1     0     0
SMALL
bcc


@<TRIPOS>ATOM
      1 C01          0.0000     0.0000     0.0000 c3         1 OT5       0.182100
      2 N02          1.4690     0.0000     0.0000 n3         1 OT5      -0.544600
      3 C03          1.9960     0.0000     1.3710 c3         1 OT5       0.151800
      4 C04          1.8490     1.3980     1.9730 c3         1 OT5      -0.056700
      5 C05          2.7340     2.3820     1.2030 c3         1 OT5      -0.016900
      6 C06          2.5870     3.7800     1.8050 c3         1 OT5      -0.049900
      7 C07          3.0170     3.7500     3.2740 c3         1 OT5       0.143500
      8 C08          2.1330     2.7680     4.0440 c3         1 OT5      -0.049900
      9 C09          2.2790     1.3690     3.4410 c3         1 OT5      -0.016900
     10 N10          2.8750     5.0930     3.8520 nu         1 OT5      -0.415600
     11 C11          3.6840     5.2420     4.9560 ca         1 OT5       0.090300
     12 C12          5.0440     5.5660     4.8200 ca         1 OT5      -0.329900
     13 C13          5.8360     5.7100     5.9740 ca         1 OT5       0.458200
     14 N14          5.3350     5.5480     7.1710 nb         1 OT5      -0.591000
     15 C15          4.0470     5.2390     7.3670 ca         1 OT5       0.293300
     16 C16          3.1710     5.0800     6.2680 ca         1 OT5       0.208300
     17 N17          1.8880     4.7780     6.4680 nb         1 OT5      -0.551000
     18 C18          1.4020     4.6260     7.6840 cp         1 OT5       0.438800
     19 C19          2.2150     4.7760     8.8190 ca         1 OT5      -0.200300
     20 C20          3.5370     5.0730     8.6710 ca         1 OT5      -0.110300
     21 C21         -0.0320     4.2910     7.8570 cp         1 OT5      -0.152500
     22 C22         -0.8540     4.1380     6.7400 ca         1 OT5      -0.063500
     23 C23         -2.1880     3.8270     6.9050 ca         1 OT5      -0.074600
     24 Cl4         -3.2110     3.6360     5.5150 cl         1 OT5       0.003600
     25 C25         -2.7120     3.6630     8.1810 ca         1 OT5       0.141100
     26 C26         -1.8960     3.8150     9.2950 ca         1 OT5      -0.074600
     27 C27         -0.5610     4.1210     9.1370 ca         1 OT5      -0.063500
     28 Cl8         -2.5570     3.6090    10.8870 cl         1 OT5       0.003600
     29 O29         -4.0270     3.3550     8.3390 oh         1 OT5      -0.484100
     30 C30          5.6330     5.7520     3.4900 c          1 OT5       0.623700
     31 O31          4.9430     5.6270     2.5000 o          1 OT5      -0.542100
     32 C32          7.0940     6.0950     3.3540 c3         1 OT5      -0.091100
     33 C33          1.9960    -1.1380    -0.7660 c3         1 OT5       0.182100
     34 H011        -0.3610    -0.4280    -0.9270 h1         1 OT5       0.000867
     35 H012        -0.3610    -0.5890     0.8340 h1         1 OT5       0.000867
     36 H013        -0.3610     1.0170     0.0930 h1         1 OT5       0.000867
     37 H031         3.0430    -0.2790     1.3550 h1         1 OT5       0.010700
     38 H032         1.4420    -0.7120     1.9710 h1         1 OT5       0.010700
     39 H331         1.6670    -2.0640    -0.3100 h1         1 OT5       0.000867
     40 H332         3.0790    -1.1020    -0.7690 h1         1 OT5       0.000867
     41 H333         1.6300    -1.0880    -1.7850 h1         1 OT5       0.000867
     42 H04          0.8160     1.7180     1.9080 hc         1 OT5       0.034700
     43 H051         2.4270     2.4040     0.1640 hc         1 OT5       0.018700
     44 H052         3.7680     2.0670     1.2730 hc         1 OT5       0.018700
     45 H091         1.6500     0.6750     3.9860 hc         1 OT5       0.018700
     46 H092         3.3130     1.0550     3.5070 hc         1 OT5       0.018700
     47 H061         1.5520     4.0930     1.7390 hc         1 OT5       0.025950
     48 H062         3.2150     4.4740     1.2610 hc         1 OT5       0.025950
     49 H07          4.0500     3.4310     3.3390 h1         1 OT5       0.043700
     50 H081         2.4400     2.7460     5.0830 hc         1 OT5       0.025950
     51 H082         1.0990     3.0840     3.9740 hc         1 OT5       0.025950
     52 H10          1.9940     5.5660     3.8090 hn         1 OT5       0.296800
     53 H13          6.8850     5.9590     5.8690 h4         1 OT5      -0.014900
     54 H20          4.1790     5.1920     9.5360 ha         1 OT5       0.125000
     55 H19          1.7950     4.6460     9.8090 ha         1 OT5       0.124000
     56 H22         -0.4600     4.3290     5.7490 ha         1 OT5       0.130500
     57 H27          0.0750     4.2390    10.0070 ha         1 OT5       0.130500
     58 H29         -4.1270     2.4180     8.3840 ho         1 OT5       0.410000
     59 H321         7.2940     7.0310     3.8610 hc         1 OT5       0.026033
     60 H322         7.6930     5.3090     3.7990 hc         1 OT5       0.026033
     61 H323         7.3470     6.1910     2.3050 hc         1 OT5       0.026033
@<TRIPOS>BOND
     1     1     2 1   
     2     1    34 1   
     3     1    35 1   
     4     1    36 1   
     5     2     3 1   
     6     2    33 1   
     7     3     4 1   
     8     3    37 1   
     9     3    38 1   
    10     4     5 1   
    11     4     9 1   
    12     4    42 1   
    13     5     6 1   
    14     5    43 1   
    15     5    44 1   
    16     6     7 1   
    17     6    47 1   
    18     6    48 1   
    19     7     8 1   
    20     7    10 1   
    21     7    49 1   
    22     8     9 1   
    23     8    50 1   
    24     8    51 1   
    25     9    45 1   
    26     9    46 1   
    27    10    11 1   
    28    10    52 1   
    29    11    12 ar  
    30    11    16 ar  
    31    12    13 ar  
    32    12    30 1   
    33    13    14 ar  
    34    13    53 1   
    35    14    15 ar  
    36    15    16 ar  
    37    15    20 ar  
    38    16    17 ar  
    39    17    18 ar  
    40    18    19 ar  
    41    18    21 1   
    42    19    20 ar  
    43    19    55 1   
    44    20    54 1   
    45    21    22 ar  
    46    21    27 ar  
    47    22    23 ar  
    48    22    56 1   
    49    23    24 1   
    50    23    25 ar  
    51    25    26 ar  
    52    25    29 1   
    53    26    27 ar  
    54    26    28 1   
    55    27    57 1   
    56    29    58 1   
    57    30    31 2   
    58    30    32 1   
    59    32    59 1   
    60    32    60 1   
    61    32    61 1   
    62    33    39 1   
    63    33    40 1   
    64    33    41 1   
@<TRIPOS>SUBSTRUCTURE
     1 OT5         1 TEMP              0 ****  ****    0 ROOT
