@<TRIPOS>MOLECULE
molecule
   61    64     1     0     0
SMALL
bcc


@<TRIPOS>ATOM
      1 C01          0.0000     0.0000     0.0000 c3         1 OT5       0.151100
      2 N02          1.4690     0.0000     0.0000 n3         1 OT5      -0.732600
      3 C03          1.9960     0.0000     1.3710 c3         1 OT5       0.164800
      4 C04          1.8490     1.3980     1.9730 c3         1 OT5      -0.070700
      5 C05          2.7340     2.3820     1.2030 c3         1 OT5      -0.071900
      6 C06          2.5870     3.7800     1.8050 c3         1 OT5      -0.096400
      7 C07          3.0170     3.7500     3.2740 c3         1 OT5       0.235500
      8 C08          2.1330     2.7680     4.0440 c3         1 OT5      -0.096400
      9 C09          2.2790     1.3690     3.4410 c3         1 OT5      -0.071900
     10 N10          2.8750     5.0930     3.8520 nu         1 OT5      -0.776600
     11 C11          3.6840     5.2420     4.9560 ca         1 OT5       0.211300
     12 C12          5.0440     5.5660     4.8200 ca         1 OT5      -0.326900
     13 C13          5.8360     5.7100     5.9740 ca         1 OT5       0.476200
     14 N14          5.3350     5.5480     7.1710 nb         1 OT5      -0.703000
     15 C15          4.0470     5.2390     7.3670 ca         1 OT5       0.331300
     16 C16          3.1710     5.0800     6.2680 ca         1 OT5       0.250300
     17 N17          1.8880     4.7780     6.4680 nb         1 OT5      -0.671000
     18 C18          1.4020     4.6260     7.6840 cp         1 OT5       0.482800
     19 C19          2.2150     4.7760     8.8190 ca         1 OT5      -0.227300
     20 C20          3.5370     5.0730     8.6710 ca         1 OT5      -0.131300
     21 C21         -0.0320     4.2910     7.8570 cp         1 OT5      -0.139500
     22 C22         -0.8540     4.1380     6.7400 ca         1 OT5      -0.086000
     23 C23         -2.1880     3.8270     6.9050 ca         1 OT5       0.002400
     24 Cl4         -3.2110     3.6360     5.5150 cl         1 OT5      -0.079400
     25 C25         -2.7120     3.6630     8.1810 ca         1 OT5       0.127100
     26 C26         -1.8960     3.8150     9.2950 ca         1 OT5       0.002400
     27 C27         -0.5610     4.1210     9.1370 ca         1 OT5      -0.086000
     28 Cl8         -2.5570     3.6090    10.8870 cl         1 OT5      -0.079400
     29 O29         -4.0270     3.3550     8.3390 oh         1 OT5      -0.500100
     30 C30          5.6330     5.7520     3.4900 c          1 OT5       0.573700
     31 O31          4.9430     5.6270     2.5000 o          1 OT5      -0.502100
     32 C32          7.0940     6.0950     3.3540 c3         1 OT5      -0.192100
     33 C33          1.9960    -1.1380    -0.7660 c3         1 OT5       0.151100
     34 H011        -0.3610    -0.4280    -0.9270 h1         1 OT5       0.031533
     35 H012        -0.3610    -0.5890     0.8340 h1         1 OT5       0.031533
     36 H013        -0.3610     1.0170     0.0930 h1         1 OT5       0.031533
     37 H031         3.0430    -0.2790     1.3550 h1         1 OT5       0.033200
     38 H032         1.4420    -0.7120     1.9710 h1         1 OT5       0.033200
     39 H331         1.6670    -2.0640    -0.3100 h1         1 OT5       0.031533
     40 H332         3.0790    -1.1020    -0.7690 h1         1 OT5       0.031533
     41 H333         1.6300    -1.0880    -1.7850 h1         1 OT5       0.031533
     42 H04          0.8160     1.7180     1.9080 hc         1 OT5       0.054700
     43 H051         2.4270     2.4040     0.1640 hc         1 OT5       0.046450
     44 H052         3.7680     2.0670     1.2730 hc         1 OT5       0.046450
     45 H091         1.6500     0.6750     3.9860 hc         1 OT5       0.046450
     46 H092         3.3130     1.0550     3.5070 hc         1 OT5       0.046450
     47 H061         1.5520     4.0930     1.7390 hc         1 OT5       0.051700
     48 H062         3.2150     4.4740     1.2610 hc         1 OT5       0.051700
     49 H07          4.0500     3.4310     3.3390 h1         1 OT5       0.064700
     50 H081         2.4400     2.7460     5.0830 hc         1 OT5       0.051700
     51 H082         1.0990     3.0840     3.9740 hc         1 OT5       0.051700
     52 H10          1.9940     5.5660     3.8090 hn         1 OT5       0.439800
     53 H13          6.8850     5.9590     5.8690 h4         1 OT5       0.030100
     54 H20          4.1790     5.1920     9.5360 ha         1 OT5       0.160000
     55 H19          1.7950     4.6460     9.8090 ha         1 OT5       0.146000
     56 H22         -0.4600     4.3290     5.7490 ha         1 OT5       0.162000
     57 H27          0.0750     4.2390    10.0070 ha         1 OT5       0.162000
     58 H29         -4.1270     2.4180     8.3840 ho         1 OT5       0.430000
     59 H321         7.2940     7.0310     3.8610 hc         1 OT5       0.061367
     60 H322         7.6930     5.3090     3.7990 hc         1 OT5       0.061367
     61 H323         7.3470     6.1910     2.3050 hc         1 OT5       0.061367
@<TRIPOS>BOND
     1     1     2 1
     2     2     3 1
     3     2    33 1
     4     3     4 1
     5     4     5 1
     6     4     9 1
     7     5     6 1
     8     6     7 1
     9     7     8 1
    10     7    10 1
    11     8     9 1
    12    10    11 1
    13    11    12 ar
    14    11    16 ar
    15    12    13 ar
    16    12    30 1
    17    13    14 ar
    18    14    15 ar
    19    15    16 ar
    20    15    20 ar
    21    16    17 ar
    22    17    18 ar
    23    18    19 ar
    24    18    21 1
    25    19    20 ar
    26    21    22 ar
    27    21    27 ar
    28    22    23 ar
    29    23    24 1
    30    23    25 ar
    31    25    26 ar
    32    25    29 1
    33    26    27 ar
    34    26    28 1
    35    30    31 2
    36    30    32 1
    37     1    34 1
    38     1    35 1
    39     1    36 1
    40     3    37 1
    41     3    38 1
    42    33    39 1
    43    33    40 1
    44    33    41 1
    45     4    42 1
    46     5    43 1
    47     5    44 1
    48     9    45 1
    49     9    46 1
    50     6    47 1
    51     6    48 1
    52     7    49 1
    53     8    50 1
    54     8    51 1
    55    10    52 1
    56    13    53 1
    57    20    54 1
    58    19    55 1
    59    22    56 1
    60    27    57 1
    61    29    58 1
    62    32    59 1
    63    32    60 1
    64    32    61 1
@<TRIPOS>SUBSTRUCTURE
     1 OT5         1 TEMP              0 ****  ****    0 ROOT
