@<TRIPOS>MOLECULE
OTA
   26    27     1     0     0
SMALL
bcc


@<TRIPOS>ATOM
      1 N1           0.0000     0.0000     0.0000 n7         1 OTA      -0.585200
      2 C2           1.4720     0.0000     0.0000 c3         1 OTA       0.278100
      3 C3           1.9510     0.0000     1.4170 cc         1 OTA      -0.140400
      4 C4           1.2180     0.3310     2.5060 cd         1 OTA      -0.020300
      5 C5          -0.2350     0.7580     2.3290 c3         1 OTA       0.046900
      6 C6          -0.4380     1.1110     0.8520 c3         1 OTA       0.129800
      7 S13          3.5430    -0.4200     2.0590 ss         1 OTA      -0.279800
      8 C14          3.2420    -0.1630     3.7450 cc         1 OTA       0.071500
      9 C15          1.9110     0.2370     3.7740 cd         1 OTA      -0.222600
     10 C16          1.2380     0.5570     5.0350 c          1 OTA       0.996200
     11 O17          1.2660     1.8160     5.5140 o          1 OTA      -0.898300
     12 O18          0.6560    -0.3150     5.6510 o          1 OTA      -0.898300
     13 N19          4.1150    -0.3240     4.8070 ns         1 OTA       0.055900
     14 C20          5.3790    -0.7300     4.5860 c          1 OTA       0.437100
     15 C21          6.3200    -0.9030     5.7320 c          1 OTA       0.924600
     16 O22          7.5840    -1.3080     5.5090 o          1 OTA      -0.874800
     17 O23          5.9460    -0.6780     6.8630 o          1 OTA      -0.874800
     18 O24          5.7550    -0.9540     3.4530 o          1 OTA      -0.639100
     19 H1          -0.3340     0.1430    -0.9330 hn         1 OTA       0.221800
     20 H21          1.8130    -0.9130    -0.4740 h1         1 OTA      -0.002300
     21 H22A         1.8130     0.9130    -0.4740 h1         1 OTA      -0.002300
     22 H51         -0.8930    -0.0570     2.6050 hc         1 OTA       0.033700
     23 H52         -0.4400     1.6260     2.9440 hc         1 OTA       0.033700
     24 H61         -1.4980     1.2620     0.6870 h1         1 OTA      -0.002300
     25 H62          0.1810     1.9700     0.6260 h1         1 OTA      -0.002300
     26 H19          3.8050    -0.1380     5.7410 hn         1 OTA       0.211500
@<TRIPOS>BOND
     1     1     2 1   
     2     1     6 1   
     3     1    19 1   
     4     2     3 1   
     5     2    20 1   
     6     2    21 1   
     7     3     4 2   
     8     3     7 1   
     9     4     5 1   
    10     4     9 1   
    11     5     6 1   
    12     5    22 1   
    13     5    23 1   
    14     6    24 1   
    15     6    25 1   
    16     7     8 1   
    17     8     9 2   
    18     8    13 1   
    19     9    10 1   
    20    10    11 1   
    21    10    12 1   
    22    13    14 1   
    23    13    26 1   
    24    14    15 1   
    25    14    18 2   
    26    15    16 1   
    27    15    17 1   
@<TRIPOS>SUBSTRUCTURE
     1 OTA         1 TEMP              0 ****  ****    0 ROOT
