@<TRIPOS>MOLECULE
OTC
   58    61     1     0     0
SMALL
bcc


@<TRIPOS>ATOM
      1 C1           1.5180     0.0000     0.0000 c          1 OTC       0.624300
      2 O1           2.1360    -0.6650    -0.8050 o          1 OTC      -0.508100
      3 C2           2.2210     0.8210     0.9840 ce         1 OTC      -0.468400
      4 O21          4.0820     1.8390     0.0170 o          1 OTC      -0.393100
      5 C21          3.6680     1.0510     0.8460 c          1 OTC       0.379300
      6 N21          4.5350     0.3870     1.6360 nz         1 OTC       0.196600
      7 C3           1.5390     1.3780     2.0370 c2         1 OTC       0.300900
      8 O3           2.2190     2.1030     2.9380 oh         1 OTC      -0.507100
      9 C4           0.0610     1.2030     2.2140 c3         1 OTC       0.160700
     10 N4          -0.6220     2.4100     1.7280 n3         1 OTC      -0.513600
     11 C41         -2.0620     2.3520     2.0160 c3         1 OTC       0.171100
     12 C42         -0.0200     3.6220     2.2980 c3         1 OTC       0.171100
     13 C4A         -0.4700     0.0000     1.4600 c3         1 OTC      -0.090700
     14 C5          -0.0650    -1.3120     2.1240 c3         1 OTC       0.191100
     15 O5          -0.3070    -1.2360     3.5300 oh         1 OTC      -0.567800
     16 C5A         -0.9090    -2.4340     1.5140 c3         1 OTC       0.019500
     17 C6          -0.3920    -3.7870     1.9970 c3         1 OTC       0.232100
     18 O6           1.0010    -3.8950     1.6970 oh         1 OTC      -0.603800
     19 C61         -0.5930    -3.8950     3.5100 c3         1 OTC      -0.051100
     20 C6A         -1.1380    -4.9040     1.3170 ca         1 OTC      -0.052300
     21 C7          -1.4220    -6.0650     2.0040 ca         1 OTC      -0.159000
     22 C8          -2.0960    -7.1000     1.3770 ca         1 OTC      -0.009000
     23 C9          -2.4890    -6.9820     0.0590 ca         1 OTC      -0.224000
     24 C10         -2.2160    -5.8190    -0.6460 ca         1 OTC       0.232100
     25 O10         -2.6000    -5.7000    -1.9430 oh         1 OTC      -0.439100
     26 C6B         -1.5420    -4.7690    -0.0120 ca         1 OTC      -0.204600
     27 C11         -1.2740    -3.5080    -0.7330 c          1 OTC       0.640900
     28 O11         -1.4030    -3.4490    -1.9430 o          1 OTC      -0.512100
     29 C5B         -0.8620    -2.3630     0.0110 ce         1 OTC      -0.219400
     30 C12         -0.4510    -1.2800    -0.6560 c2         1 OTC       0.111900
     31 O12         -0.4400    -1.3340    -2.0020 oh         1 OTC      -0.461100
     32 C4B          0.0000     0.0000     0.0000 c3         1 OTC       0.146000
     33 O13         -0.5010     1.1450    -0.6920 oh         1 OTC      -0.534800
     34 H211         4.9950    -0.3240     1.1030 hn         1 OTC       0.249133
     35 H212         5.2150     1.0270     1.9960 hn         1 OTC       0.249133
     36 H3           2.6950     2.7870     2.4970 ho         1 OTC       0.436000
     37 H4          -0.1510     1.0750     3.2690 h1         1 OTC       0.061700
     38 H4A         -1.5520     0.0560     1.4620 hc         1 OTC       0.088700
     39 H411        -2.5680     1.8160     1.2220 h1         1 OTC       0.014200
     40 H412        -2.2210     1.8400     2.9570 h1         1 OTC       0.014200
     41 H413        -2.4570     3.3590     2.0810 h1         1 OTC       0.014200
     42 H421         0.8840     3.8670     1.7530 h1         1 OTC       0.014200
     43 H422         0.2220     3.4500     3.3400 h1         1 OTC       0.014200
     44 H423        -0.7210     4.4440     2.2220 h1         1 OTC       0.014200
     45 H5           0.9850    -1.5050     1.9390 h1         1 OTC       0.008700
     46 HA           0.5140    -1.1690     3.9880 ho         1 OTC       0.388000
     47 H5A         -1.9360    -2.3160     1.8380 hc         1 OTC       0.067700
     48 H6           1.3490    -4.6750     2.0970 ho         1 OTC       0.403000
     49 H611         0.1770    -3.3270     4.0180 hc         1 OTC       0.025700
     50 H612        -0.5320    -4.9340     3.8090 hc         1 OTC       0.025700
     51 H613        -1.5670    -3.4990     3.7740 hc         1 OTC       0.025700
     52 H7          -0.5830    -6.4140     2.5940 ha         1 OTC       0.109000
     53 H8          -1.6640    -8.0690     1.5950 ha         1 OTC       0.101000
     54 H9          -2.2800    -7.8750    -0.5180 ha         1 OTC       0.124000
     55 H10         -3.2860    -6.3200    -2.1260 ho         1 OTC       0.411000
     56 H12         -1.2180    -0.9220    -2.3390 ho         1 OTC       0.422000
     57 H13         -0.1150     1.1870    -1.5510 ho         1 OTC       0.409000
     58 H213         4.0340    -0.0620     2.3770 hn         1 OTC       0.249133
@<TRIPOS>BOND
     1     1     2 2   
     2     1     3 1   
     3     1    32 1   
     4     3     5 1   
     5     3     7 2   
     6     4     5 2   
     7     5     6 1   
     8     6    34 1   
     9     6    35 1   
    10     6    58 1   
    11     7     8 1   
    12     7     9 1   
    13     8    36 1   
    14     9    10 1   
    15     9    13 1   
    16     9    37 1   
    17    10    11 1   
    18    10    12 1   
    19    11    39 1   
    20    11    40 1   
    21    11    41 1   
    22    12    42 1   
    23    12    43 1   
    24    12    44 1   
    25    13    14 1   
    26    13    32 1   
    27    13    38 1   
    28    14    15 1   
    29    14    16 1   
    30    14    45 1   
    31    15    46 1   
    32    16    17 1   
    33    16    29 1   
    34    16    47 1   
    35    17    18 1   
    36    17    19 1   
    37    17    20 1   
    38    18    48 1   
    39    19    49 1   
    40    19    50 1   
    41    19    51 1   
    42    20    21 ar  
    43    20    26 ar  
    44    21    22 ar  
    45    21    52 1   
    46    22    23 ar  
    47    22    53 1   
    48    23    24 ar  
    49    23    54 1   
    50    24    25 1   
    51    24    26 ar  
    52    25    55 1   
    53    26    27 1   
    54    27    28 2   
    55    27    29 1   
    56    29    30 2   
    57    30    31 1   
    58    30    32 1   
    59    31    56 1   
    60    32    33 1   
    61    33    57 1   
@<TRIPOS>SUBSTRUCTURE
     1 OTC         1 TEMP              0 ****  ****    0 ROOT
