@<TRIPOS>MOLECULE
molecule
   58    61     1     0     0
SMALL
bcc


@<TRIPOS>ATOM
      1 C1           1.5180     0.0000     0.0000 c          1 OTC       0.570300
      2 O1           2.1360    -0.6650    -0.8050 o          1 OTC      -0.471100
      3 C2           2.2210     0.8210     0.9840 ce         1 OTC      -0.422400
      4 O21          4.0820     1.8390     0.0170 o          1 OTC      -0.382100
      5 C21          3.6680     1.0510     0.8460 c          1 OTC       0.521300
      6 N21          4.5350     0.3870     1.6360 nz         1 OTC      -0.681400
      7 C3           1.5390     1.3780     2.0370 c2         1 OTC       0.263900
      8 O3           2.2190     2.1030     2.9380 oh         1 OTC      -0.520100
      9 C4           0.0610     1.2030     2.2140 c3         1 OTC       0.201700
     10 N4          -0.6220     2.4100     1.7280 n3         1 OTC      -0.701600
     11 C41         -2.0620     2.3520     2.0160 c3         1 OTC       0.141600
     12 C42         -0.0200     3.6220     2.2980 c3         1 OTC       0.141600
     13 C4A         -0.4700     0.0000     1.4600 c3         1 OTC      -0.082700
     14 C5          -0.0650    -1.3120     2.1240 c3         1 OTC       0.151100
     15 O5          -0.3070    -1.2360     3.5300 oh         1 OTC      -0.587800
     16 C5A         -0.9090    -2.4340     1.5140 c3         1 OTC      -0.001500
     17 C6          -0.3920    -3.7870     1.9970 c3         1 OTC       0.206100
     18 O6           1.0010    -3.8950     1.6970 oh         1 OTC      -0.615800
     19 C61         -0.5930    -3.8950     3.5100 c3         1 OTC      -0.117100
     20 C6A         -1.1380    -4.9040     1.3170 ca         1 OTC      -0.052300
     21 C7          -1.4220    -6.0650     2.0040 ca         1 OTC      -0.174000
     22 C8          -2.0960    -7.1000     1.3770 ca         1 OTC      -0.047000
     23 C9          -2.4890    -6.9820     0.0590 ca         1 OTC      -0.236000
     24 C10         -2.2160    -5.8190    -0.6460 ca         1 OTC       0.207100
     25 O10         -2.6000    -5.7000    -1.9430 oh         1 OTC      -0.460100
     26 C6B         -1.5420    -4.7690    -0.0120 ca         1 OTC      -0.189600
     27 C11         -1.2740    -3.5080    -0.7330 c          1 OTC       0.585900
     28 O11         -1.4030    -3.4490    -1.9430 o          1 OTC      -0.472100
     29 C5B         -0.8620    -2.3630     0.0110 ce         1 OTC      -0.188400
     30 C12         -0.4510    -1.2800    -0.6560 c2         1 OTC       0.100900
     31 O12         -0.4400    -1.3340    -2.0020 oh         1 OTC      -0.480100
     32 C4B          0.0000     0.0000     0.0000 c3         1 OTC       0.119000
     33 O13         -0.5010     1.1450    -0.6920 oh         1 OTC      -0.541800
     34 H211         4.9950    -0.3240     1.1030 hn         1 OTC       0.479800
     35 H212         5.2150     1.0270     1.9960 hn         1 OTC       0.479800
     36 H3           2.6950     2.7870     2.4970 ho         1 OTC       0.455000
     37 H4          -0.1510     1.0750     3.2690 h1         1 OTC       0.084700
     38 H4A         -1.5520     0.0560     1.4620 hc         1 OTC       0.115700
     39 H411        -2.5680     1.8160     1.2220 h1         1 OTC       0.046867
     40 H412        -2.2210     1.8400     2.9570 h1         1 OTC       0.046867
     41 H413        -2.4570     3.3590     2.0810 h1         1 OTC       0.046867
     42 H421         0.8840     3.8670     1.7530 h1         1 OTC       0.046867
     43 H422         0.2220     3.4500     3.3400 h1         1 OTC       0.046867
     44 H423        -0.7210     4.4440     2.2220 h1         1 OTC       0.046867
     45 H5           0.9850    -1.5050     1.9390 h1         1 OTC       0.041700
     46 HA           0.5140    -1.1690     3.9880 ho         1 OTC       0.402000
     47 H5A         -1.9360    -2.3160     1.8380 hc         1 OTC       0.100700
     48 H6           1.3490    -4.6750     2.0970 ho         1 OTC       0.414000
     49 H611         0.1770    -3.3270     4.0180 hc         1 OTC       0.053033
     50 H612        -0.5320    -4.9340     3.8090 hc         1 OTC       0.053033
     51 H613        -1.5670    -3.4990     3.7740 hc         1 OTC       0.053033
     52 H7          -0.5830    -6.4140     2.5940 ha         1 OTC       0.131000
     53 H8          -1.6640    -8.0690     1.5950 ha         1 OTC       0.138000
     54 H9          -2.2800    -7.8750    -0.5180 ha         1 OTC       0.150000
     55 H10         -3.2860    -6.3200    -2.1260 ho         1 OTC       0.435000
     56 H12         -1.2180    -0.9220    -2.3390 ho         1 OTC       0.442000
     57 H13         -0.1150     1.1870    -1.5510 ho         1 OTC       0.424000
     58 H213         4.0340    -0.0620     2.3770 hn         1 OTC       0.479800
@<TRIPOS>BOND
     1     1     2 2
     2     1     3 1
     3     1    32 1
     4     3     5 1
     5     3     7 2
     6     4     5 2
     7     5     6 1
     8     7     8 1
     9     7     9 1
    10     9    10 1
    11     9    13 1
    12    10    11 1
    13    10    12 1
    14    13    14 1
    15    13    32 1
    16    14    15 1
    17    14    16 1
    18    16    17 1
    19    16    29 1
    20    17    18 1
    21    17    19 1
    22    17    20 1
    23    20    21 ar
    24    20    26 ar
    25    21    22 ar
    26    22    23 ar
    27    23    24 ar
    28    24    25 1
    29    24    26 ar
    30    26    27 1
    31    27    28 2
    32    27    29 1
    33    29    30 2
    34    30    31 1
    35    30    32 1
    36    32    33 1
    37     6    34 1
    38     6    35 1
    39     8    36 1
    40     9    37 1
    41    13    38 1
    42    11    39 1
    43    11    40 1
    44    11    41 1
    45    12    42 1
    46    12    43 1
    47    12    44 1
    48    14    45 1
    49    15    46 1
    50    16    47 1
    51    18    48 1
    52    19    49 1
    53    19    50 1
    54    19    51 1
    55    21    52 1
    56    22    53 1
    57    23    54 1
    58    25    55 1
    59    31    56 1
    60    33    57 1
    61    58     6 1
@<TRIPOS>SUBSTRUCTURE
     1 OTC         1 TEMP              0 ****  ****    0 ROOT
