@<TRIPOS>MOLECULE
OTD
   17    17     1     0     0
SMALL
bcc


@<TRIPOS>ATOM
      1 N1           0.0000     0.0000     0.0000 ns         1 OTD      -0.202900
      2 N3          -0.1260     0.2540     2.3310 ns         1 OTD      -0.017100
      3 C4           1.2330     0.1340     2.4510 ce         1 OTD      -0.197600
      4 C5           2.0220     0.0000     1.3800 c2         1 OTD      -0.219200
      5 C6           1.4540     0.0000     0.0000 c3         1 OTD      -0.025100
      6 C61          1.8730     1.2710    -0.6670 c          1 OTD       0.971600
      7 O62          3.0290     1.0940    -1.3510 o          1 OTD      -0.907800
      8 C41          1.8240     0.1600     3.7880 c          1 OTD       1.006800
      9 O42          0.8530     0.3010     4.7150 o          1 OTD      -0.905800
     10 O41          3.0180     0.0650     4.0190 o          1 OTD      -0.905800
     11 C2          -0.8000     0.1900     1.1190 c          1 OTD       0.613500
     12 O2          -2.0280     0.2740     1.0430 o          1 OTD      -0.817500
     13 HN1         -0.4590    -0.0300    -0.8890 hn         1 OTD       0.156500
     14 HN3         -0.6660     0.3720     3.1660 hn         1 OTD       0.196500
     15 H5           3.0960    -0.0460     1.5160 ha         1 OTD       0.138000
     16 H6           1.8240    -0.8550    -0.5530 h1         1 OTD       0.023700
     17 O61          1.2620     2.3280    -0.6090 o          1 OTD      -0.907800
@<TRIPOS>BOND
     1     1     5 1   
     2     1    11 1   
     3     1    13 1   
     4     2     3 1   
     5     2    11 1   
     6     2    14 1   
     7     3     4 2   
     8     3     8 1   
     9     4     5 1   
    10     4    15 1   
    11     5     6 1   
    12     5    16 1   
    13     6     7 1   
    14     6    17 1   
    15     8     9 1   
    16     8    10 1   
    17    11    12 2   
@<TRIPOS>SUBSTRUCTURE
     1 OTD         1 TEMP              0 ****  ****    0 ROOT
