@<TRIPOS>MOLECULE
OTE
   55    54     1     0     0
SMALL
bcc


@<TRIPOS>ATOM
      1 C1         -0.8070    2.1080    0.4650 c3        1 OTE     -0.093100
      2 C2          0.4940    1.3660    0.2950 c3        1 OTE     -0.080400
      3 C3          1.3370    1.4280    1.5510 c3        1 OTE     -0.079400
      4 C4          2.6420    0.6820    1.3750 c3        1 OTE     -0.079400
      5 C5          3.4850    0.7450    2.6310 c3        1 OTE     -0.078400
      6 C6          4.7890   -0.0030    2.4560 c3        1 OTE     -0.078400
      7 C7          5.6270    0.0630    3.7130 c3        1 OTE     -0.083400
      8 C8          6.9310   -0.6920    3.5220 c3        1 OTE      0.132400
      9 O9          7.6500   -0.5820    4.7480 os        1 OTE     -0.427600
     10 C10         8.9130   -1.2420    4.6940 c3        1 OTE      0.126400
     11 C11         9.4930   -1.1810    6.1030 c3        1 OTE      0.127400
     12 O12         9.4610   -2.5130    6.6110 os        1 OTE     -0.429600
     13 C13         9.8150   -2.5730    7.9910 c3        1 OTE      0.127400
     14 C14         9.9000   -4.0530    8.3520 c3        1 OTE      0.127400
     15 O15        11.2860   -4.3580    8.4890 os        1 OTE     -0.428600
     16 C16        11.5180   -5.7540    8.6590 c3        1 OTE      0.127400
     17 C17        13.0040   -5.9130    8.9620 c3        1 OTE      0.128400
     18 O18        13.1030   -6.2400   10.3470 os        1 OTE     -0.438600
     19 C19        14.4530   -6.2470   10.8070 c3        1 OTE      0.087400
     20 C20        14.3980   -6.6700   12.2720 c3        1 OTE      0.131400
     21 O21        13.9600   -8.0050   12.4140 oh        1 OTE     -0.600800
     22 H11        -1.4130    2.0490   -0.4710 hc        1 OTE      0.032700
     23 H12        -0.6190    3.1840    0.6970 hc        1 OTE      0.032700
     24 H13        -1.4050    1.6690    1.3010 hc        1 OTE      0.032700
     25 H21A        0.2850    0.2930    0.0380 hc        1 OTE      0.038700
     26 H22         1.0680    1.8040   -0.5630 hc        1 OTE      0.038700
     27 H31         0.7650    0.9890    2.4100 hc        1 OTE      0.039700
     28 H32         1.5480    2.4990    1.8080 hc        1 OTE      0.039700
     29 H41         3.2150    1.1210    0.5160 hc        1 OTE      0.039200
     30 H42         2.4310   -0.3900    1.1170 hc        1 OTE      0.039200
     31 H51         2.9120    0.3060    3.4910 hc        1 OTE      0.041700
     32 H52         3.6970    1.8160    2.8890 hc        1 OTE      0.041700
     33 H61         4.5760   -1.0740    2.1990 hc        1 OTE      0.040200
     34 H62         5.3610    0.4370    1.5960 hc        1 OTE      0.040200
     35 H71         5.0660   -0.3800    4.5770 hc        1 OTE      0.054700
     36 H72         5.8510    1.1300    3.9750 hc        1 OTE      0.054700
     37 H81         6.7390   -1.7750    3.2930 h1        1 OTE      0.025700
     38 H82         7.5360   -0.2450    2.6880 h1        1 OTE      0.025700
     39 H101        9.5800   -0.7020    3.9710 h1        1 OTE      0.042200
     40 H102        8.7820   -2.3060    4.3620 h1        1 OTE      0.042200
     41 H111        8.8840   -0.5010    6.7550 h1        1 OTE      0.043700
     42 H112       10.5560   -0.8240    6.0750 h1        1 OTE      0.043700
     43 H131        9.0180   -2.0680    8.5980 h1        1 OTE      0.043700
     44 H132       10.8000   -2.0640    8.1620 h1        1 OTE      0.043700
     45 H141        9.4390   -4.6860    7.5480 h1        1 OTE      0.044200
     46 H142        9.3830   -4.2470    9.3290 h1        1 OTE      0.044200
     47 H161       11.2530   -6.2910    7.7100 h1        1 OTE      0.043200
     48 H162       10.8930   -6.1510    9.5030 h1        1 OTE      0.043200
     49 H171       13.4410   -6.7490    8.3560 h1        1 OTE      0.045200
     50 H172       13.5580   -4.9610    8.7480 h1        1 OTE      0.045200
     51 H191       14.8950   -5.2220   10.7080 h1        1 OTE      0.039200
     52 H192       15.0540   -6.9780   10.2050 h1        1 OTE      0.039200
     53 H201       13.7240   -5.9790   12.8450 h1        1 OTE      0.053200
     54 H202       15.4310   -6.6520   12.7110 h1        1 OTE      0.053200
     55 H21        13.0970   -8.0640   11.9840 ho        1 OTE      0.412000
@<TRIPOS>BOND
     1    1    2 1   
     2    1   22 1   
     3    1   23 1   
     4    1   24 1   
     5    2    3 1   
     6    2   25 1   
     7    2   26 1   
     8    3    4 1   
     9    3   27 1   
    10    3   28 1   
    11    4    5 1   
    12    4   29 1   
    13    4   30 1   
    14    5    6 1   
    15    5   31 1   
    16    5   32 1   
    17    6    7 1   
    18    6   33 1   
    19    6   34 1   
    20    7    8 1   
    21    7   35 1   
    22    7   36 1   
    23    8    9 1   
    24    8   37 1   
    25    8   38 1   
    26    9   10 1   
    27   10   11 1   
    28   10   39 1   
    29   10   40 1   
    30   11   12 1   
    31   11   41 1   
    32   11   42 1   
    33   12   13 1   
    34   13   14 1   
    35   13   43 1   
    36   13   44 1   
    37   14   15 1   
    38   14   45 1   
    39   14   46 1   
    40   15   16 1   
    41   16   17 1   
    42   16   47 1   
    43   16   48 1   
    44   17   18 1   
    45   17   49 1   
    46   17   50 1   
    47   18   19 1   
    48   19   20 1   
    49   19   51 1   
    50   19   52 1   
    51   20   21 1   
    52   20   53 1   
    53   20   54 1   
    54   21   55 1   
@<TRIPOS>SUBSTRUCTURE
     1 OTE         1 TEMP              0 ****  ****    0 ROOT
