@<TRIPOS>MOLECULE
molecule
   42    45     1     0     0
SMALL
bcc


@<TRIPOS>ATOM
      1 C1           0.0000     0.0000     0.0000 c          1 OTF       0.702100
      2 C2           1.5060     0.0000     0.0000 cx         1 OTF       0.027300
      3 C3           2.2130     0.0000     1.3560 cx         1 OTF      -0.052400
      4 C4           2.2130    -1.2640     0.4950 cx         1 OTF      -0.057400
      5 F5           2.1100     0.7110    -1.0430 f          1 OTF      -0.205300
      6 O6          -0.6060    -0.0950     1.0460 o          1 OTF      -0.567100
      7 N7          -0.6750     0.1130    -1.1620 ns         1 OTF      -0.458400
      8 O8          -2.0900     0.1140    -1.1610 oh         1 OTF      -0.359100
      9 C9           1.3480    -2.4130     0.9450 ca         1 OTF      -0.080300
     10 C10          1.3210    -3.5860     0.2140 ca         1 OTF      -0.101500
     11 C11          0.5280    -4.6400     0.6270 ca         1 OTF      -0.128000
     12 C12         -0.2390    -4.5210     1.7720 ca         1 OTF      -0.119000
     13 C13         -0.2120    -3.3480     2.5030 ca         1 OTF      -0.128000
     14 C14          0.5850    -2.2960     2.0920 ca         1 OTF      -0.101500
     15 C15          3.5070     0.7650     1.4670 ca         1 OTF      -0.040300
     16 C16          3.6580     1.7240     2.4540 ca         1 OTF      -0.128500
     17 C17          4.8400     2.4280     2.5600 ca         1 OTF      -0.081000
     18 C18          5.8830     2.1710     1.6720 cp         1 OTF      -0.144500
     19 C19          5.7250     1.2050     0.6800 ca         1 OTF      -0.081000
     20 C20          4.5410     0.5030     0.5870 ca         1 OTF      -0.128500
     21 C21          7.1550     2.9260     1.7810 cp         1 OTF       0.732500
     22 N22          8.1350     2.6670     0.9260 nb         1 OTF      -0.710500
     23 C23          9.2820     3.3210     0.9950 ca         1 OTF       0.431700
     24 C24          9.4520     4.2880     1.9780 ca         1 OTF      -0.128700
     25 C25          8.4050     4.5320     2.8560 ca         1 OTF       0.431700
     26 N26          7.2830     3.8450     2.7280 nb         1 OTF      -0.710500
     27 F27         10.6120     4.9750     2.0770 f          1 OTF      -0.126900
     28 H7          -0.1750     0.2200    -2.0220 hn         1 OTF       0.331500
     29 H3           1.5510    -0.0350     2.2130 hc         1 OTF       0.124700
     30 H4           3.1550    -1.4790     0.0040 hc         1 OTF       0.105700
     31 H8          -2.4050    -0.0230    -2.0390 ho         1 OTF       0.401000
     32 H10          1.9220    -3.6790    -0.6820 ha         1 OTF       0.136500
     33 H14          0.6060    -1.3770     2.6650 ha         1 OTF       0.136500
     34 H11          0.5070    -5.5590     0.0550 ha         1 OTF       0.132500
     35 H12         -0.8620    -5.3460     2.0940 ha         1 OTF       0.130000
     36 H13         -0.8110    -3.2550     3.4010 ha         1 OTF       0.132500
     37 H16          2.8460     1.9230     3.1440 ha         1 OTF       0.139000
     38 H20          4.4170    -0.2480    -0.1840 ha         1 OTF       0.139000
     39 H17          4.9570     3.1790     3.3330 ha         1 OTF       0.155500
     40 H19          6.5330     1.0000    -0.0120 ha         1 OTF       0.155500
     41 H23         10.0790     3.1050     0.2940 h4         1 OTF       0.044100
     42 H25          8.5040     5.2810     3.6330 h4         1 OTF       0.044100
@<TRIPOS>BOND
     1     1     2 1
     2     1     6 2
     3     1     7 1
     4     2     3 1
     5     2     4 1
     6     2     5 1
     7     3     4 1
     8     3    15 1
     9     4     9 1
    10     7     8 1
    11     9    10 ar
    12     9    14 ar
    13    10    11 ar
    14    11    12 ar
    15    12    13 ar
    16    13    14 ar
    17    15    16 ar
    18    15    20 ar
    19    16    17 ar
    20    17    18 ar
    21    18    19 ar
    22    18    21 1
    23    19    20 ar
    24    21    22 ar
    25    21    26 ar
    26    22    23 ar
    27    23    24 ar
    28    24    25 ar
    29    24    27 1
    30    25    26 ar
    31     7    28 1
    32     3    29 1
    33     4    30 1
    34     8    31 1
    35    10    32 1
    36    14    33 1
    37    11    34 1
    38    12    35 1
    39    13    36 1
    40    16    37 1
    41    20    38 1
    42    17    39 1
    43    19    40 1
    44    23    41 1
    45    25    42 1
@<TRIPOS>SUBSTRUCTURE
     1 OTF         1 TEMP              0 ****  ****    0 ROOT
