@<TRIPOS>MOLECULE
molecule
   40    41     1     0     0
SMALL
bcc


@<TRIPOS>ATOM
      1 C1           0.0000     0.0000     0.0000 c3         1 OTG       0.310900
      2 O1          -0.4760    -1.1530     0.6980 oh         1 OTG      -0.630800
      3 C2           1.5290     0.0000     0.0000 c3         1 OTG       0.088700
      4 N2           2.0200    -1.1960    -0.6880 ns         1 OTG      -0.570900
      5 C3           2.0300     0.0000     1.4480 c3         1 OTG       0.119100
      6 O3           3.4510     0.1520     1.4710 oh         1 OTG      -0.600800
      7 C4           1.3760     1.1690     2.1930 c3         1 OTG       0.111100
      8 O4           1.7090     1.1000     3.5810 oh         1 OTG      -0.602800
      9 C5          -0.1420     1.0810     2.0280 c3         1 OTG       0.128100
     10 O5          -0.4840     1.1750     0.6460 os         1 OTG      -0.388600
     11 C6          -0.8050     2.2260     2.7960 c3         1 OTG       0.150400
     12 O6          -2.2230     2.1420     2.6470 oh         1 OTG      -0.599800
     13 C1'          3.0960    -2.3100    -4.0580 ca         1 OTG      -0.014300
     14 C2'          2.7450    -2.3710    -2.7090 ca         1 OTG      -0.155600
     15 C3'          2.8510    -3.5810    -2.0220 ca         1 OTG      -0.100000
     16 C4'          3.3130    -4.7040    -2.6760 ca         1 OTG      -0.146000
     17 C5'          3.6640    -4.6350    -4.0130 ca         1 OTG      -0.099000
     18 C6'          3.5560    -3.4410    -4.7010 ca         1 OTG      -0.141000
     19 C8'          2.2500    -1.1640    -2.0140 c          1 OTG       0.677700
     20 O8'          2.0500    -0.1420    -2.6410 o          1 OTG      -0.614100
     21 H1          -0.3580    -0.0190    -1.0220 h2         1 OTG       0.087700
     22 HO1         -1.2240    -1.5070     0.2470 ho         1 OTG       0.418000
     23 H2           1.8890     0.8880    -0.5060 h1         1 OTG       0.112700
     24 HN2          2.2020    -2.0320    -0.1690 hn         1 OTG       0.320500
     25 H3           1.7530    -0.9320     1.9260 h1         1 OTG       0.062700
     26 HO3          3.8370    -0.5640     1.9480 ho         1 OTG       0.408000
     27 H4           1.7300     2.1040     1.7770 h1         1 OTG       0.057700
     28 HO4          2.3390     1.7710     3.7870 ho         1 OTG       0.412000
     29 H5          -0.4900     0.1320     2.4180 h1         1 OTG       0.086700
     30 H61         -0.5470     2.1540     3.8450 h1         1 OTG       0.032700
     31 H62         -0.4560     3.1740     2.4030 h1         1 OTG       0.032700
     32 HO6         -2.6370     2.7770     3.2080 ho         1 OTG       0.401000
     33 H3'          2.5780    -3.6370    -0.9750 ha         1 OTG       0.124000
     34 H4'          3.3980    -5.6440    -2.1430 ha         1 OTG       0.132000
     35 H5'          4.0270    -5.5200    -4.5220 ha         1 OTG       0.132000
     36 H6'          3.8310    -3.3940    -5.7480 ha         1 OTG       0.138000
     37 H7'1         3.3330    -1.1450    -5.8250 hc         1 OTG       0.055033
     38 H7'2         3.5730    -0.2510    -4.3170 hc         1 OTG       0.055033
     39 H7'3         1.9400    -0.6970    -4.8320 hc         1 OTG       0.055033
     40 C7'          2.9770    -1.0090    -4.8110 c3         1 OTG      -0.045800
@<TRIPOS>BOND
     1     1     2 1
     2     1     3 1
     3     1    10 1
     4     1    21 1
     5     2    22 1
     6     3     4 1
     7     3     5 1
     8     3    23 1
     9     4    19 1
    10     4    24 1
    11     5     6 1
    12     5     7 1
    13     5    25 1
    14     6    26 1
    15     7     8 1
    16     7     9 1
    17     7    27 1
    18     8    28 1
    19     9    10 1
    20     9    11 1
    21     9    29 1
    22    11    12 1
    23    11    30 1
    24    11    31 1
    25    12    32 1
    26    13    14 ar
    27    13    18 ar
    28    13    40 1
    29    14    15 ar
    30    14    19 1
    31    15    16 ar
    32    15    33 1
    33    16    17 ar
    34    16    34 1
    35    17    18 ar
    36    17    35 1
    37    18    36 1
    38    40    37 1
    39    40    38 1
    40    40    39 1
    41    19    20 2
@<TRIPOS>SUBSTRUCTURE
     1 OTG         1 TEMP              0 ****  ****    0 ROOT
