@<TRIPOS>MOLECULE
molecule
   57    60     1     0     0
SMALL
bcc


@<TRIPOS>ATOM
      1 C1           0.0000     0.0000     0.0000 ca         1 OTJ      -0.094000
      2 C2           0.0050     0.0010     2.4130 ca         1 OTJ      -0.094000
      3 C3          -8.2590     8.6670    -0.0430 ca         1 OTJ      -0.124000
      4 C4           1.3790     0.0000     0.0000 ca         1 OTJ      -0.137000
      5 C5           1.3840    -0.0000     2.4080 ca         1 OTJ      -0.137000
      6 C6          -9.2090     8.8450     0.9430 ca         1 OTJ      -0.126000
      7 C7          -9.5700     6.4750     1.0320 ca         1 OTJ      -0.122000
      8 C8          -5.6310     7.1010    -1.3000 cc         1 OTJ       0.433400
      9 C9          -0.6960    -0.0000     1.2080 ca         1 OTJ      -0.120500
     10 C10         -8.6210     6.2900     0.0460 ca         1 OTJ      -0.053300
     11 C11         -7.9620     7.3870    -0.4950 ca         1 OTJ       0.045800
     12 C12          2.0750     0.0000     1.2030 ca         1 OTJ       0.059600
     13 C13         -9.8640     7.7510     1.4800 ca         1 OTJ       0.037400
     14 C14         -2.1790     0.0000     1.2120 cc         1 OTJ       0.399800
     15 C15         -2.9790    -0.6300     2.1130 cd         1 OTJ      -0.116200
     16 C16         -4.2230     0.4110     0.6350 cd         1 OTJ       0.386800
     17 C17         -6.7660     2.9720    -0.1690 c          1 OTJ       0.662100
     18 C18          4.1470     0.6420     0.2230 c          1 OTJ       0.736100
     19 C19          6.1460     1.2710    -0.9190 c3         1 OTJ       0.158700
     20 C20         -8.3010     4.9010    -0.4410 c3         1 OTJ      -0.028100
     21 C21         -5.4180     0.9440    -0.1130 c3         1 OTJ       0.104700
     22 C22         -7.0870     4.3610     0.3190 c3         1 OTJ      -0.148400
     23 N23         -5.0530     6.9380    -2.4420 n2         1 OTJ      -0.491800
     24 N24         -2.9750     0.6290     0.3240 nc         1 OTJ      -0.660000
     25 N25         -6.0310     6.9240    -3.4450 na         1 OTJ      -0.253900
     26 N26         -7.2450     7.0910    -2.8350 na         1 OTJ      -0.015700
     27 N27         -4.2690    -0.3700     1.7450 na         1 OTJ      -0.286900
     28 N28         -7.0010     7.2030    -1.4930 na         1 OTJ      -0.347300
     29 N29          3.4750     0.0010     1.2000 ns         1 OTJ      -0.449100
     30 N30         -5.7290     2.2940     0.3610 ns         1 OTJ      -0.589900
     31 O31         -7.4420     2.4630    -1.0390 o          1 OTJ      -0.607100
     32 O32          3.5410     1.3010    -0.5980 o          1 OTJ      -0.594000
     33 O33          5.4890     0.5540     0.1600 os         1 OTJ      -0.439900
     34 Cl3        -11.0740     7.9970     2.7020 cl         1 OTJ      -0.103400
     35 Cl5         -2.4600    -1.5810     3.4700 cl         1 OTJ      -0.047400
     36 H1          -0.5420    -0.0000    -0.9380 ha         1 OTJ       0.146500
     37 H4           1.9210     0.0000    -0.9380 ha         1 OTJ       0.150000
     38 H2          -0.5330     0.0010     3.3530 ha         1 OTJ       0.146500
     39 H5           1.9290     0.0000     3.3450 ha         1 OTJ       0.150000
     40 H6          -9.4420     9.8420     1.2970 ha         1 OTJ       0.149000
     41 H7         -10.0850     5.6210     1.4550 ha         1 OTJ       0.151000
     42 H8          -5.1370     7.6660    -0.5190 h5         1 OTJ       0.068100
     43 H201        -9.1920     4.2870    -0.3930 hc         1 OTJ       0.084200
     44 H202        -7.9500     4.9490    -1.4650 hc         1 OTJ       0.084200
     45 H29          3.9770    -0.7470     1.6380 hn         1 OTJ       0.323500
     46 H27         -5.0910    -0.6960     2.2120 hn         1 OTJ       0.310700
     47 H211        -6.2680     0.2930     0.0540 h1         1 OTJ       0.074700
     48 H212        -5.1940     0.9800    -1.1730 h1         1 OTJ       0.074700
     49 H221        -6.1800     4.9520     0.3470 hc         1 OTJ       0.064200
     50 H222        -7.5120     4.3050     1.3130 hc         1 OTJ       0.064200
     51 H30         -5.1470     2.7280     1.0490 hn         1 OTJ       0.323500
     52 H191         7.2170     1.1310    -0.8440 h1         1 OTJ       0.051367
     53 H192         5.7970     0.8890    -1.8710 h1         1 OTJ       0.051367
     54 H193         5.9130     2.3260    -0.8450 h1         1 OTJ       0.051367
     55 H25         -5.8780     6.8140    -4.4280 hn         1 OTJ       0.368700
     56 H26         -7.6710     7.9340    -3.1670 hn         1 OTJ       0.132700
     57 H3          -7.7470     9.5240    -0.4630 ha         1 OTJ       0.143000
@<TRIPOS>BOND
     1     1     4 ar
     2     1     9 ar
     3     2     5 ar
     4     2     9 ar
     5     3     6 ar
     6     3    11 ar
     7     4    12 ar
     8     5    12 ar
     9     6    13 ar
    10     7    10 ar
    11     7    13 ar
    12     8    23 2
    13     8    28 1
    14     9    14 1
    15    10    11 ar
    16    10    20 1
    17    11    28 1
    18    12    29 1
    19    13    34 1
    20    14    15 2
    21    14    24 1
    22    15    27 1
    23    15    35 1
    24    16    21 1
    25    16    24 2
    26    16    27 1
    27    17    22 1
    28    17    30 1
    29    17    31 2
    30    18    29 1
    31    18    32 2
    32    18    33 1
    33    19    33 1
    34    20    22 1
    35    21    30 1
    36    23    25 1
    37    25    26 1
    38    26    28 1
    39     1    36 1
    40     4    37 1
    41     2    38 1
    42     5    39 1
    43     3    57 1
    44     6    40 1
    45     7    41 1
    46     8    42 1
    47    20    43 1
    48    20    44 1
    49    29    45 1
    50    27    46 1
    51    21    47 1
    52    21    48 1
    53    22    49 1
    54    22    50 1
    55    30    51 1
    56    19    52 1
    57    19    53 1
    58    19    54 1
    59    25    55 1
    60    26    56 1
@<TRIPOS>SUBSTRUCTURE
     1 OTJ         1 TEMP              0 ****  ****    0 ROOT
