@<TRIPOS>MOLECULE
molecule
   60    64     1     0     0
SMALL
bcc


@<TRIPOS>ATOM
      1 C24          0.0000     0.0000     0.0000 c          1 OTM       0.663300
      2 O25          1.2170     0.0000     0.0000 o          1 OTM      -0.592100
      3 C26         -0.7310     0.0000     1.2680 ce         1 OTM      -0.226200
      4 C27         -0.0560     0.0000     2.4360 cf         1 OTM      -0.042200
      5 C28         -0.7900    -0.0000     3.7090 ca         1 OTM      -0.038800
      6 C29         -2.1590    -0.2860     3.7320 ca         1 OTM      -0.104000
      7 C30         -2.8410    -0.2830     4.9310 ca         1 OTM       0.036400
      8 C31         -2.1760    -0.0000     6.1130 ca         1 OTM      -0.106000
      9 C32         -0.8250     0.2840     6.1060 ca         1 OTM      -0.118000
     10 C33         -0.1200     0.2800     4.9110 ca         1 OTM       0.015800
     11 N34          1.2500     0.5610     4.9030 na         1 OTM      -0.010500
     12 C35          1.8770     1.6080     5.4820 cc         1 OTM       0.415400
     13 N36          3.1540     1.4840     5.2290 nd         1 OTM      -0.408000
     14 N37          3.3770     0.4300     4.5310 nd         1 OTM       0.003000
     15 N38          2.2720    -0.1900     4.2950 nc         1 OTM      -0.204800
     16 Cl          -4.5410    -0.6370     4.9580 cl         1 OTM      -0.087400
     17 N23         -0.6750     0.0010    -1.1670 ns         1 OTM      -0.569900
     18 C8           0.0570     0.0000    -2.4360 c3         1 OTM       0.050700
     19 C9          -0.8070     0.6020    -3.5140 c          1 OTM       0.653100
     20 O10         -1.9240     0.9920    -3.2490 o          1 OTM      -0.593100
     21 C7           0.4210    -1.4370    -2.8150 c3         1 OTM      -0.043100
     22 C4           1.3830    -1.9960    -1.8000 ca         1 OTM      -0.079300
     23 C3           0.9050    -2.6570    -0.6840 ca         1 OTM      -0.115500
     24 C5           2.7460    -1.8490    -1.9850 ca         1 OTM      -0.115500
     25 C2           1.7880    -3.1710     0.2470 ca         1 OTM      -0.117000
     26 C6           3.6290    -2.3640    -1.0540 ca         1 OTM      -0.117000
     27 C1           3.1500    -3.0240     0.0620 ca         1 OTM      -0.115000
     28 N11         -0.3380     0.7060    -4.7730 ns         1 OTM      -0.474100
     29 C12         -1.1750     1.1630    -5.7950 ca         1 OTM       0.080600
     30 C13         -0.6500     1.9220    -6.8340 ca         1 OTM      -0.149000
     31 C14         -1.4730     2.3750    -7.8420 ca         1 OTM      -0.073000
     32 C15         -2.8350     2.0690    -7.8200 ca         1 OTM      -0.163500
     33 C16         -3.3590     1.3060    -6.7760 ca         1 OTM      -0.073000
     34 C17         -2.5300     0.8520    -5.7720 ca         1 OTM      -0.149000
     35 C18         -3.7210     2.5540    -8.9010 cc         1 OTM       0.480000
     36 N19         -5.0550     2.3350    -9.0080 na         1 OTM      -0.191400
     37 N20         -5.4430     2.9900   -10.1910 nc         1 OTM      -0.212800
     38 N21         -4.3800     3.5270   -10.6850 nd         1 OTM      -0.004000
     39 N22         -3.3650     3.2850    -9.9370 nd         1 OTM      -0.416000
     40 H26         -1.8150    -0.0000     1.2690 ha         1 OTM       0.129000
     41 H27          1.0280     0.0000     2.4360 ha         1 OTM       0.186000
     42 H29         -2.6830    -0.5080     2.8100 ha         1 OTM       0.159000
     43 H31         -2.7210     0.0020     7.0500 ha         1 OTM       0.157000
     44 H32         -0.3130     0.5020     7.0350 ha         1 OTM       0.151000
     45 H35          1.4090     2.4030     6.0500 h5         1 OTM       0.083100
     46 H23         -1.6750     0.0470    -1.1670 hn         1 OTM       0.334500
     47 H8           0.9620     0.5860    -2.3300 h1         1 OTM       0.101700
     48 H71C        -0.4760    -2.0430    -2.8340 hc         1 OTM       0.054200
     49 H72C         0.8840    -1.4450    -3.7940 hc         1 OTM       0.054200
     50 H3          -0.1620    -2.7710    -0.5390 ha         1 OTM       0.120500
     51 H5           3.1210    -1.3310    -2.8590 ha         1 OTM       0.120500
     52 H2           1.4120    -3.6880     1.1210 ha         1 OTM       0.128500
     53 H6           4.6970    -2.2490    -1.1990 ha         1 OTM       0.128500
     54 H1           3.8420    -3.4270     0.7910 ha         1 OTM       0.131000
     55 H11          0.6240     0.5080    -4.9660 hn         1 OTM       0.333500
     56 H13          0.4060     2.1590    -6.8510 ha         1 OTM       0.153000
     57 H17         -2.9360     0.2600    -4.9610 ha         1 OTM       0.153000
     58 H14         -1.0630     2.9670    -8.6520 ha         1 OTM       0.146000
     59 H16         -4.4150     1.0650    -6.7570 ha         1 OTM       0.146000
     60 H19         -5.6390     1.8180    -8.3810 hn         1 OTM       0.337700
@<TRIPOS>BOND
     1    27    25 ar
     2    27    26 ar
     3    25    23 ar
     4    23    22 ar
     5    22    24 ar
     6    22    21 1
     7    24    26 ar
     8    21    18 1
     9    18    19 1
    10    18    17 1
    11    19    20 2
    12    19    28 1
    13    28    29 1
    14    29    30 ar
    15    29    34 ar
    16    30    31 ar
    17    31    32 ar
    18    32    33 ar
    19    32    35 1
    20    33    34 ar
    21    35    36 1
    22    35    39 2
    23    36    37 1
    24    37    38 2
    25    38    39 1
    26    17     1 1
    27     1     2 2
    28     1     3 1
    29     3     4 2
    30     4     5 1
    31     5     6 ar
    32     5    10 ar
    33     6     7 ar
    34     7     8 ar
    35     7    16 1
    36     8     9 ar
    37     9    10 ar
    38    10    11 1
    39    11    12 1
    40    11    15 1
    41    12    13 2
    42    13    14 1
    43    14    15 2
    44    27    54 1
    45    25    52 1
    46    26    53 1
    47    23    50 1
    48    24    51 1
    49    21    48 1
    50    21    49 1
    51    18    47 1
    52    17    46 1
    53    28    55 1
    54    30    56 1
    55    34    57 1
    56    31    58 1
    57    33    59 1
    58    36    60 1
    59     3    40 1
    60     4    41 1
    61     6    42 1
    62     8    43 1
    63     9    44 1
    64    12    45 1
@<TRIPOS>SUBSTRUCTURE
     1 OTM         1 TEMP              0 ****  ****    0 ROOT
