@<TRIPOS>MOLECULE
OTM
   60    66     1     0     0
SMALL
bcc


@<TRIPOS>ATOM
      1 C24          0.0000     0.0000     0.0000 c3         1 OTM       0.341000
      2 O25          1.2170     0.0000     0.0000 o          1 OTM      -0.411000
      3 C26         -0.7310     0.0000     1.2680 c2         1 OTM      -0.166000
      4 C27         -0.0560     0.0000     2.4360 c2         1 OTM       0.082000
      5 C28         -0.7900    -0.0000     3.7090 c3         1 OTM       0.059000
      6 C29         -2.1590    -0.2860     3.7320 c2         1 OTM      -0.151000
      7 C30         -2.8410    -0.2830     4.9310 c2         1 OTM      -0.066000
      8 C31         -2.1760    -0.0000     6.1130 c2         1 OTM      -0.132000
      9 C32         -0.8250     0.2840     6.1060 c2         1 OTM      -0.036000
     10 C33         -0.1200     0.2800     4.9110 c2         1 OTM      -0.192000
     11 N34          1.2500     0.5610     4.9030 na         1 OTM       0.336000
     12 C35          1.8770     1.6080     5.4820 c2         1 OTM      -0.237000
     13 N36          3.1540     1.4840     5.2290 n2         1 OTM      -0.125000
     14 N37          3.3770     0.4300     4.5310 n2         1 OTM       0.032000
     15 N38          2.2720    -0.1900     4.2950 n2         1 OTM      -0.215000
     16 Cl          -4.5410    -0.6370     4.9580 cl         1 OTM       0.078000
     17 N23         -0.6750     0.0010    -1.1670 n7         1 OTM      -0.008000
     18 C8           0.0570     0.0000    -2.4360 c3         1 OTM      -0.077000
     19 C9          -0.8070     0.6020    -3.5140 c2         1 OTM       0.200000
     20 O10         -1.9240     0.9920    -3.2490 o          1 OTM      -0.398000
     21 C7           0.4210    -1.4370    -2.8150 c3         1 OTM      -0.059000
     22 C4           1.3830    -1.9960    -1.8000 ca         1 OTM      -0.091000
     23 C3           0.9050    -2.6570    -0.6840 ca         1 OTM      -0.092000
     24 C5           2.7460    -1.8490    -1.9850 ca         1 OTM      -0.092000
     25 C2           1.7880    -3.1710     0.2470 ca         1 OTM      -0.085500
     26 C6           3.6290    -2.3640    -1.0540 ca         1 OTM      -0.085500
     27 C1           3.1500    -3.0240     0.0620 ca         1 OTM      -0.083000
     28 N11         -0.3380     0.7060    -4.7730 ns         1 OTM       0.124000
     29 C12         -1.1750     1.1630    -5.7950 ca         1 OTM      -0.067000
     30 C13         -0.6500     1.9220    -6.8340 ca         1 OTM      -0.117000
     31 C14         -1.4730     2.3750    -7.8420 ca         1 OTM      -0.049500
     32 C15         -2.8350     2.0690    -7.8200 ca         1 OTM      -0.048000
     33 C16         -3.3590     1.3060    -6.7760 ca         1 OTM      -0.049500
     34 C17         -2.5300     0.8520    -5.7720 ca         1 OTM      -0.117000
     35 C18         -3.7210     2.5540    -8.9010 c2         1 OTM      -0.150000
     36 N19         -5.0550     2.3350    -9.0080 na         1 OTM       0.257000
     37 N20         -5.4430     2.9900   -10.1910 n2         1 OTM      -0.229000
     38 N21         -4.3800     3.5270   -10.6850 n2         1 OTM       0.036000
     39 N22         -3.3650     3.2850    -9.9370 n2         1 OTM      -0.130000
     40 H26         -0.2670     0.8750     0.8300 DU         1 OTM       0.044000
     41 H27         -0.5200     0.8750     2.8750 DU         1 OTM       0.054000
     42 H29         -2.6830    -0.5080     2.8100 ha         1 OTM       0.143000
     43 H31         -2.7210     0.0020     7.0500 ha         1 OTM       0.125000
     44 H32         -0.3130     0.5020     7.0350 ha         1 OTM       0.116000
     45 H35          1.4090     2.4030     6.0500 h5         1 OTM       0.173000
     46 H23         -1.6750     0.0430    -1.1670 hn         1 OTM       0.119000
     47 H8           0.9620     0.5860    -2.3300 h1         1 OTM       0.111000
     48 H71C        -0.4760    -2.0430    -2.8340 hc         1 OTM       0.062500
     49 H72C         0.8840    -1.4450    -3.7940 hc         1 OTM       0.062500
     50 H3          -0.1620    -2.7710    -0.5390 ha         1 OTM       0.097000
     51 H5           3.1210    -1.3310    -2.8590 ha         1 OTM       0.097000
     52 H2           1.4120    -3.6880     1.1210 ha         1 OTM       0.102000
     53 H6           4.6970    -2.2490    -1.1990 ha         1 OTM       0.102000
     54 H1           3.8420    -3.4270     0.7910 ha         1 OTM       0.104000
     55 H11          0.6240     0.5080    -4.9660 hn         1 OTM       0.091000
     56 H13          0.4060     2.1590    -6.8510 ha         1 OTM       0.127500
     57 H17         -2.9360     0.2600    -4.9610 ha         1 OTM       0.127500
     58 H14         -1.0630     2.9670    -8.6520 ha         1 OTM       0.115000
     59 H16         -4.4150     1.0650    -6.7570 ha         1 OTM       0.115000
     60 H19         -5.6390     1.8180    -8.3810 hn         1 OTM       0.124000
@<TRIPOS>BOND
     1     1     2 1   
     2     1     3 1   
     3     1    17 1   
     4     1    40 1   
     5     3     4 1   
     6     3    40 1   
     7     4     5 1   
     8     4    41 1   
     9     5     6 1   
    10     5    10 1   
    11     5    41 1   
    12     6     7 1   
    13     6    42 1   
    14     7     8 1   
    15     7    16 1   
    16     8     9 1   
    17     8    43 1   
    18     9    10 1   
    19     9    44 1   
    20    10    11 1   
    21    11    12 1   
    22    11    15 1   
    23    12    13 1   
    24    12    45 1   
    25    13    14 1   
    26    14    15 1   
    27    17    18 1   
    28    17    46 1   
    29    18    19 1   
    30    18    21 1   
    31    18    47 1   
    32    19    20 1   
    33    19    28 1   
    34    21    22 1   
    35    21    48 1   
    36    21    49 1   
    37    22    23 1   
    38    22    24 1   
    39    23    25 1   
    40    23    50 1   
    41    24    26 1   
    42    24    51 1   
    43    25    27 1   
    44    25    52 1   
    45    26    27 1   
    46    26    53 1   
    47    27    54 1   
    48    28    29 1   
    49    28    55 1   
    50    29    30 1   
    51    29    34 1   
    52    30    31 1   
    53    30    56 1   
    54    31    32 1   
    55    31    58 1   
    56    32    33 1   
    57    32    35 1   
    58    33    34 1   
    59    33    59 1   
    60    34    57 1   
    61    35    36 1   
    62    35    39 1   
    63    36    37 1   
    64    36    60 1   
    65    37    38 1   
    66    38    39 1   
@<TRIPOS>SUBSTRUCTURE
     1 OTM         1 TEMP              0 ****  ****    0 ROOT
