@<TRIPOS>MOLECULE
OTN
   36    37     1     0     0
SMALL
bcc


@<TRIPOS>ATOM
      1 O2'          0.0000     0.0000     0.0000 o          1 OTN      -0.438500
      2 N1'          1.2180     0.0000     0.0000 no         1 OTN       1.043200
      3 O3'          1.8270     0.0000     1.0540 o          1 OTN      -0.438500
      4 C2'          1.9590    -0.0040    -1.2820 ca         1 OTN      -0.437200
      5 C3'          1.2680    -0.0040    -2.4780 ca         1 OTN       0.000000
      6 C4'          1.9590    -0.0080    -3.6770 ca         1 OTN      -0.132000
      7 C5'          3.3420    -0.0140    -3.6820 ca         1 OTN      -0.024000
      8 C6'          4.0380    -0.0130    -2.4890 ca         1 OTN      -0.136000
      9 C1'          3.3480    -0.0030    -1.2830 ca         1 OTN       0.144900
     10 S01          4.2320     0.0040     0.2410 ss         1 OTN      -0.209000
     11 C1           5.9650     0.0020    -0.2940 c3         1 OTN       0.224200
     12 O5           6.2540    -1.2210    -0.9720 os         1 OTN      -0.363600
     13 C5           7.5940    -1.3160    -1.4600 c3         1 OTN       0.151100
     14 C6           7.7790    -2.6480    -2.1890 c3         1 OTN       0.225400
     15 O6           6.9500    -2.6740    -3.3530 oh         1 OTN      -0.588800
     16 C4           8.5710    -1.2380    -0.2840 c3         1 OTN       0.140100
     17 O4           8.3520    -2.3450     0.5930 oh         1 OTN      -0.556800
     18 C3           8.3390     0.0710     0.4760 c3         1 OTN       0.167100
     19 O3           9.1960     0.1190     1.6190 oh         1 OTN      -0.566800
     20 C2           6.8770     0.1340     0.9290 c3         1 OTN       0.170100
     21 O2           6.6310     1.3840     1.5770 oh         1 OTN      -0.579800
     22 H1           0.1850     0.0000    -2.4780 ha         1 OTN       0.132000
     23 H2           1.4150    -0.0090    -4.6140 ha         1 OTN       0.114000
     24 H3           3.8800    -0.0190    -4.6220 ha         1 OTN       0.108000
     25 H4           5.1210    -0.0150    -2.4940 ha         1 OTN       0.141000
     26 H5           6.1420     0.8340    -0.9640 h2         1 OTN       0.036700
     27 H6           7.7870    -0.4960    -2.1420 h1         1 OTN       0.017700
     28 H7           7.5010    -3.4620    -1.5300 h1         1 OTN       0.000200
     29 H8           8.8160    -2.7590    -2.4820 h1         1 OTN       0.000200
     30 H9           7.1520    -3.4400    -3.8660 ho         1 OTN       0.392000
     31 H10          9.5880    -1.2620    -0.6570 h1         1 OTN       0.007700
     32 H11          9.1460    -2.8470     0.6700 ho         1 OTN       0.390000
     33 H12          8.5500     0.9090    -0.1770 h1         1 OTN       0.011700
     34 H13          9.8340     0.8030     1.5040 ho         1 OTN       0.391000
     35 H14          6.6770    -0.6800     1.6160 h1         1 OTN       0.053700
     36 H15          6.2050     1.2310     2.4040 ho         1 OTN       0.409000
@<TRIPOS>BOND
     1     1     2 1   
     2     2     3 1   
     3     2     4 1   
     4     4     5 ar  
     5     4     9 ar  
     6     5     6 ar  
     7     5    22 1   
     8     6     7 ar  
     9     6    23 1   
    10     7     8 ar  
    11     7    24 1   
    12     8     9 ar  
    13     8    25 1   
    14     9    10 1   
    15    10    11 1   
    16    11    12 1   
    17    11    20 1   
    18    11    26 1   
    19    12    13 1   
    20    13    14 1   
    21    13    16 1   
    22    13    27 1   
    23    14    15 1   
    24    14    28 1   
    25    14    29 1   
    26    15    30 1   
    27    16    17 1   
    28    16    18 1   
    29    16    31 1   
    30    17    32 1   
    31    18    19 1   
    32    18    20 1   
    33    18    33 1   
    34    19    34 1   
    35    20    21 1   
    36    20    35 1   
    37    21    36 1   
@<TRIPOS>SUBSTRUCTURE
     1 OTN         1 TEMP              0 ****  ****    0 ROOT
