@<TRIPOS>MOLECULE
OTR
   23    23     1     0     0
SMALL
bcc


@<TRIPOS>ATOM
      1 C2         -0.0600    0.2420    0.0130 ca        1 OTR     -0.067000
      2 C3          1.3240    0.2180   -0.0480 ca        1 OTR     -0.181000
      3 C4          2.0560   -0.0530    1.1270 ca        1 OTR      0.175100
      4 O4          3.4160   -0.0660    0.9990 oh        1 OTR     -0.472100
      5 C5          1.3960   -0.2930    2.3430 ca        1 OTR     -0.181000
      6 C6          0.0060   -0.2630    2.3830 ca        1 OTR     -0.067000
      7 C1         -0.7290   -0.0010    1.2220 ca        1 OTR     -0.232300
      8 C7         -2.2190    0.0390    1.2770 c3        1 OTR      0.203400
      9 O7         -2.7980    1.1220    0.5610 oh        1 OTR     -0.643800
     10 C8         -2.7760   -1.2500    0.6220 c3        1 OTR      0.087800
     11 N8         -4.2570   -1.1970    0.4530 n4        1 OTR     -0.832600
     12 HN81       -4.5870   -2.0110   -0.0710 hn        1 OTR      0.465133
     13 HN82       -4.7170   -1.1690    1.3670 hn        1 OTR      0.465133
     14 H81        -2.3160   -1.3740   -0.4000 hx        1 OTR      0.117700
     15 H82        -2.5130   -2.1370    1.2640 hx        1 OTR      0.117700
     16 H7         -2.5800    0.1080    2.3450 h1        1 OTR      0.070700
     17 HO7        -2.1470    1.8360    0.5030 ho        1 OTR      0.462000
     18 H6         -0.5100   -0.4400    3.3400 ha        1 OTR      0.139000
     19 H5          1.9740   -0.4970    3.2570 ha        1 OTR      0.165500
     20 HO4         3.8110   -0.2410    1.8690 ho        1 OTR      0.439000
     21 H3          1.8630    0.4100   -0.9880 ha        1 OTR      0.165500
     22 H2         -0.6410    0.4640   -0.8970 ha        1 OTR      0.139000
     23 H83        -4.5000   -0.3350   -0.0570 hn        1 OTR      0.465133
@<TRIPOS>BOND
     1    1    2 ar  
     2    1    7 ar  
     3    1   22 1   
     4    2    3 ar  
     5    2   21 1   
     6    3    4 1   
     7    3    5 ar  
     8    4   20 1   
     9    5    6 ar  
    10    5   19 1   
    11    6    7 ar  
    12    6   18 1   
    13    7    8 1   
    14    8    9 1   
    15    8   10 1   
    16    8   16 1   
    17    9   17 1   
    18   10   11 1   
    19   10   14 1   
    20   10   15 1   
    21   11   12 1   
    22   11   13 1   
    23   11   23 1   
@<TRIPOS>SUBSTRUCTURE
     1 OTR         1 TEMP              0 ****  ****    0 ROOT
