@<TRIPOS>MOLECULE
molecule
   23    23     1     0     0
SMALL
bcc


@<TRIPOS>ATOM
      1 C2           0.0000     0.0000     0.0000 ca         1 OTS      -0.088500
      2 C3           1.3810     0.0000     0.0000 ca         1 OTS      -0.147500
      3 C4           2.0740     0.0000     1.2020 ca         1 OTS       0.150100
      4 O4           3.4320     0.0010     1.2050 oh         1 OTS      -0.508100
      5 C5           1.3760    -0.0010     2.4010 ca         1 OTS      -0.147500
      6 C6          -0.0050     0.0040     2.3950 ca         1 OTS      -0.088500
      7 C1          -0.6910    -0.0010     1.1970 ca         1 OTS      -0.177300
      8 C7          -2.1990    -0.0010     1.1930 c3         1 OTS       0.184400
      9 O7          -2.6770     0.6710     2.3600 oh         1 OTS      -0.614800
     10 C8          -2.7080    -1.4430     1.1910 c3         1 OTS       0.095800
     11 N8          -4.1770    -1.4430     1.1890 nz         1 OTS      -0.810600
     12 H2          -0.5410    -0.0020    -0.9380 ha         1 OTS       0.140000
     13 H3           1.9230     0.0010    -0.9380 ha         1 OTS       0.161500
     14 HO4          3.7470    -0.8880     1.2040 ho         1 OTS       0.435000
     15 H5           1.9150     0.0010     3.3410 ha         1 OTS       0.161500
     16 H6          -0.5500     0.0030     3.3320 ha         1 OTS       0.140000
     17 H7          -2.5580     0.5100     0.3090 h1         1 OTS       0.053700
     18 HO7         -2.9000     1.5610     2.1400 ho         1 OTS       0.441000
     19 H81         -2.3490    -1.9550     2.0760 hx         1 OTS       0.121700
     20 H82         -2.3460    -1.9530     0.3070 hx         1 OTS       0.121700
     21 HN81        -4.5130    -1.1580     2.0880 hn         1 OTS       0.458133
     22 HN82        -4.5100    -2.3650     0.9860 hn         1 OTS       0.458133
     23 H83         -4.5100    -0.8070     0.4910 hn         1 OTS       0.458133
@<TRIPOS>BOND
     1     1     2 ar
     2     1     7 ar
     3     1    12 1
     4     2     3 ar
     5     2    13 1
     6     3     4 1
     7     3     5 ar
     8     4    14 1
     9     5     6 ar
    10     5    15 1
    11     6     7 ar
    12     6    16 1
    13     7     8 1
    14     8     9 1
    15     8    10 1
    16     8    17 1
    17     9    18 1
    18    10    11 1
    19    10    19 1
    20    10    20 1
    21    11    21 1
    22    11    22 1
    23    23    11 1
@<TRIPOS>SUBSTRUCTURE
     1 OTS         1 TEMP              0 ****  ****    0 ROOT
