@<TRIPOS>MOLECULE
molecule
   19    18     1     0     0
SMALL
bcc


@<TRIPOS>ATOM
      1 C1           0.0000     0.0000     0.0000 c          1 OTT       0.854800
      2 C2           1.4130     0.0000     0.0000 ce         1 OTT      -0.116200
      3 C3           2.0930     0.0000     1.1770 cf         1 OTT      -0.208000
      4 C4           3.5030     0.0000     1.1770 cf         1 OTT      -0.063000
      5 C5           4.1810     0.0000     2.3510 ce         1 OTT      -0.219000
      6 C6           5.6420     0.0000     2.3510 ce         1 OTT      -0.101000
      7 C7           6.3100     0.0000     3.5080 c2         1 OTT      -0.226200
      8 C8           7.8170     0.0000     3.5080 c3         1 OTT      -0.049900
      9 O11         -0.6090     0.0010     1.0540 o          1 OTT      -0.840800
     10 O12         -0.6760     0.0060    -1.1690 o          1 OTT      -0.840800
     11 H2           1.9550     0.0000    -0.9380 ha         1 OTT       0.102000
     12 H3           1.5510     0.0000     2.1150 ha         1 OTT       0.151000
     13 H4           4.0440     0.0000     0.2390 ha         1 OTT       0.108000
     14 H5           3.6400     0.0000     3.2900 ha         1 OTT       0.129000
     15 H6           6.1840     0.0000     1.4130 ha         1 OTT       0.113000
     16 H7           5.7680     0.0000     4.4460 ha         1 OTT       0.122000
     17 H8           8.1780     0.8850     2.9970 hc         1 OTT       0.028367
     18 H8A          8.1780    -0.0000     4.5290 hc         1 OTT       0.028367
     19 H8B          8.1780    -0.8840     2.9970 hc         1 OTT       0.028367
@<TRIPOS>BOND
     1     1     2 1
     2     1     9 1
     3     1    10 1
     4     2     3 2
     5     3     4 1
     6     4     5 2
     7     5     6 1
     8     6     7 2
     9     7     8 1
    10     2    11 1
    11     3    12 1
    12     4    13 1
    13     5    14 1
    14     6    15 1
    15     7    16 1
    16     8    17 1
    17     8    18 1
    18     8    19 1
@<TRIPOS>SUBSTRUCTURE
     1 OTT         1 TEMP              0 ****  ****    0 ROOT
