@<TRIPOS>MOLECULE
OTT
   19    18     1     0     0
SMALL
bcc


@<TRIPOS>ATOM
      1 C1          0.5140   -1.0330    0.1950 c         1 OTT      0.887800
      2 C2          1.3920    0.1890    0.3580 ce        1 OTT     -0.149200
      3 C3          2.5670    0.1720    1.0060 cf        1 OTT     -0.211000
      4 C4          3.4010    1.3370    1.1590 cf        1 OTT     -0.055000
      5 C5          4.5900    1.4030    1.7900 ce        1 OTT     -0.213000
      6 C6          5.2580    0.3000    2.4380 ce        1 OTT     -0.084000
      7 C7          6.4450    0.4180    3.0540 c2        1 OTT     -0.227200
      8 C8          7.1350   -0.7010    3.7200 c3        1 OTT     -0.047900
      9 O11         0.8920   -2.1320    0.6910 o         1 OTT     -0.831800
     10 O12        -0.5690   -0.8770   -0.4410 o         1 OTT     -0.831800
     11 H2          0.9910    1.1070   -0.1000 ha        1 OTT      0.097000
     12 H3          2.9160   -0.7800    1.4440 ha        1 OTT      0.144000
     13 H4          3.0040    2.2640    0.7020 ha        1 OTT      0.100000
     14 H5          5.1210    2.3700    1.8290 ha        1 OTT      0.099000
     15 H6          4.7390   -0.6750    2.4090 ha        1 OTT      0.134000
     16 H7          6.9720    1.3850    3.0900 ha        1 OTT      0.105000
     17 H8          7.2950   -0.4690    4.8030 hc        1 OTT      0.028367
     18 H8A         6.5510   -1.6510    3.6480 hc        1 OTT      0.028367
     19 H8B         8.1380   -0.8710    3.2520 hc        1 OTT      0.028367
@<TRIPOS>BOND
     1    1    2 1   
     2    1    9 1   
     3    1   10 1   
     4    2    3 2   
     5    2   11 1   
     6    3    4 1   
     7    3   12 1   
     8    4    5 2   
     9    4   13 1   
    10    5    6 1   
    11    5   14 1   
    12    6    7 2   
    13    6   15 1   
    14    7    8 1   
    15    7   16 1   
    16    8   17 1   
    17    8   18 1   
    18    8   19 1   
@<TRIPOS>SUBSTRUCTURE
     1 OTT         1 TEMP              0 ****  ****    0 ROOT
