@<TRIPOS>MOLECULE
molecule
   45    45     1     0     0
SMALL
bcc


@<TRIPOS>ATOM
      1 C1           0.0000     0.0000     0.0000 c3         1 OTU       0.306900
      2 O1          -0.4770    -1.1940     0.6250 os         1 OTU      -0.388600
      3 C2           1.5300     0.0000     0.0000 c3         1 OTU       0.124100
      4 O2           2.0080    -1.1670    -0.6710 oh         1 OTU      -0.583800
      5 C3           2.0330     0.0000     1.4470 c3         1 OTU       0.125100
      6 O3           3.4610     0.0740     1.4570 oh         1 OTU      -0.610800
      7 C4           1.4520     1.2140     2.1780 c3         1 OTU       0.112100
      8 O4           1.8560     1.1850     3.5480 oh         1 OTU      -0.593800
      9 C5          -0.0770     1.1670     2.0930 c3         1 OTU       0.132100
     10 O5          -0.4760     1.1380     0.7220 os         1 OTU      -0.428600
     11 C6          -0.6620     2.4080     2.7700 c3         1 OTU       0.151400
     12 O6          -2.0880     2.3070     2.7950 oh         1 OTU      -0.602800
     13 OAB         -4.4130    -1.4390     3.3030 oh         1 OTU      -0.578800
     14 OAG         -1.6330    -3.8220     0.4990 oh         1 OTU      -0.576800
     15 CAK         -1.5440    -4.0100    -2.3720 c3         1 OTU       0.097400
     16 CAO         -2.5390    -1.4980     1.8090 c          1 OTU       0.546100
     17 CAP         -1.3230    -2.6970    -1.6170 c3         1 OTU       0.132100
     18 CAS         -2.0980    -2.7310    -0.2970 c3         1 OTU       0.141100
     19 CAW         -1.8780    -1.4190     0.4570 c3         1 OTU       0.056100
     20 H1          -0.3590     0.0470    -1.0210 h2         1 OTU       0.093700
     21 H2           1.8900     0.8870    -0.5060 h1         1 OTU       0.058700
     22 HO2          2.3930    -0.9200    -1.4960 ho         1 OTU       0.405000
     23 H3           1.7090    -0.9080     1.9410 h1         1 OTU       0.087700
     24 HO3          3.8130    -0.6970     1.8690 ho         1 OTU       0.416000
     25 H4           1.8110     2.1230     1.7090 h1         1 OTU       0.045700
     26 HO4          2.4700     1.8820     3.7100 ho         1 OTU       0.408000
     27 H5          -0.4360     0.2750     2.5910 h1         1 OTU       0.096700
     28 H6          -0.2870     2.4780     3.7830 h1         1 OTU       0.033200
     29 H6A         -0.3730     3.2920     2.2150 h1         1 OTU       0.033200
     30 HO6         -2.4470     3.0470     3.2570 ho         1 OTU       0.401000
     31 HOAC        -0.7600    -4.8840    -3.9360 ho         1 OTU       0.411000
     32 HOAG        -2.3190    -4.4630     0.5870 ho         1 OTU       0.400000
     33 HAK         -1.2750    -4.8430    -1.7340 h1         1 OTU       0.033700
     34 HAKA        -2.5860    -4.0930    -2.6540 h1         1 OTU       0.033700
     35 HAP         -0.2670    -2.5710    -1.4130 h1         1 OTU       0.101700
     36 HAS         -3.1540    -2.8570    -0.5010 h1         1 OTU       0.036700
     37 HAW         -2.3090    -0.6010    -0.1080 h1         1 OTU       0.083700
     38 H20         -5.3540    -1.4200     3.3690 ho         1 OTU       0.401000
     39 HAJ         -4.5340    -2.0780     1.3470 h1         1 OTU       0.039200
     40 H22         -4.3060    -0.3370     1.5630 h1         1 OTU       0.039200
     41 OAA         -1.8730    -1.7080     2.7950 o          1 OTU      -0.451100
     42 CAJ         -4.0300    -1.3180     1.9310 c3         1 OTU       0.045400
     43 OAE         -1.7890    -1.6050    -2.4130 oh         1 OTU      -0.622800
     44 HOAE        -1.8630    -1.8810    -3.3120 ho         1 OTU       0.423000
     45 OAC         -0.7300    -4.0260    -3.5450 oh         1 OTU      -0.612800
@<TRIPOS>BOND
     1     1    10 1
     2     1     3 1
     3     1    20 1
     4     2     1 1
     5     3     4 1
     6     3     5 1
     7     3    21 1
     8     4    22 1
     9     5     6 1
    10     5    23 1
    11     6    24 1
    12     7     5 1
    13     7     8 1
    14     7    25 1
    15     8    26 1
    16     9     7 1
    17     9    27 1
    18    10     9 1
    19    11     9 1
    20    11    12 1
    21    11    28 1
    22    11    29 1
    23    12    30 1
    24    13    42 1
    25    45    15 1
    26    45    31 1
    27    43    44 1
    28    14    18 1
    29    14    32 1
    30    42    16 1
    31    15    17 1
    32    15    33 1
    33    15    34 1
    34    16    41 2
    35    16    19 1
    36    17    43 1
    37    17    18 1
    38    17    35 1
    39    18    19 1
    40    18    36 1
    41    19     2 1
    42    19    37 1
    43    13    38 1
    44    42    39 1
    45    42    40 1
@<TRIPOS>SUBSTRUCTURE
     1 OTU         1 TEMP              0 ****  ****    0 ROOT
