@<TRIPOS>MOLECULE
molecule
   24    25     1     0     0
SMALL
bcc


@<TRIPOS>ATOM
      1 C1           0.0000     0.0000     0.0000 c3         1 OTW      -0.051800
      2 C2           1.5070     0.0000     0.0000 ca         1 OTW       0.000700
      3 C3           2.2060     0.0000     1.1690 ca         1 OTW      -0.303300
      4 C4           3.6080     0.0010     1.1440 ca         1 OTW       0.713200
      5 N5           4.2770     0.0010     0.0110 nb         1 OTW      -0.777000
      6 C6           3.6440    -0.0000    -1.1700 ca         1 OTW       0.470600
      7 C7           2.2300    -0.0060    -1.2120 ca         1 OTW      -0.196300
      8 C8           1.5700    -0.0130    -2.4500 ca         1 OTW      -0.113000
      9 C9           2.3110    -0.0190    -3.6120 ca         1 OTW       0.137600
     10 C10          3.7090    -0.0190    -3.5640 ca         1 OTW      -0.118000
     11 C11          4.3690    -0.0000    -2.3750 ca         1 OTW      -0.185300
     12 N12          1.6600    -0.0260    -4.8490 nv         1 OTW      -0.990200
     13 N13          4.3070     0.0010     2.3430 nv         1 OTW      -1.012500
     14 H11C        -0.3610     0.8810    -0.5170 hc         1 OTW       0.049033
     15 H12C        -0.3610     0.0080     1.0210 hc         1 OTW       0.049033
     16 H13C        -0.3610    -0.8880    -0.5040 hc         1 OTW       0.049033
     17 H3           1.6800    -0.0000     2.1160 ha         1 OTW       0.133000
     18 H131         3.8100     0.0010     3.2120 hn         1 OTW       0.439300
     19 H132         5.3080     0.0010     2.3390 hn         1 OTW       0.439300
     20 H11          5.4520    -0.0010    -2.3560 ha         1 OTW       0.146000
     21 H8           0.4880    -0.0140    -2.4920 ha         1 OTW       0.136000
     22 H10          4.2750    -0.0240    -4.4880 ha         1 OTW       0.135000
     23 H121         1.4220     0.8390    -5.2940 hn         1 OTW       0.424800
     24 H122         1.4220    -0.8950    -5.2850 hn         1 OTW       0.424800
@<TRIPOS>BOND
     1     1     2 1
     2     2     3 ar
     3     2     7 ar
     4     3     4 ar
     5     4     5 ar
     6     4    13 1
     7     5     6 ar
     8     6     7 ar
     9     6    11 ar
    10     7     8 ar
    11     8     9 ar
    12     9    10 ar
    13     9    12 1
    14    10    11 ar
    15     1    14 1
    16     1    15 1
    17     1    16 1
    18     3    17 1
    19    13    18 1
    20    13    19 1
    21    11    20 1
    22     8    21 1
    23    10    22 1
    24    12    23 1
    25    12    24 1
@<TRIPOS>SUBSTRUCTURE
     1 OTW         1 TEMP              0 ****  ****    0 ROOT
