@<TRIPOS>MOLECULE
OUH
   25    25     1     0     0
SMALL
bcc


@<TRIPOS>ATOM
      1 N            0.0000     0.0000     0.0000 nz         1 OUH       0.000400
      2 CA           1.4700     0.0000     0.0000 c3         1 OUH       0.017500
      3 C            1.7030    -2.3330    -2.8870 c          1 OUH       0.974600
      4 O            1.1660    -2.3890    -4.1200 o          1 OUH      -0.859300
      5 CB           1.9800     0.0000     1.4420 c3         1 OUH      -0.056100
      6 CG           1.5810     1.2880     2.1160 cc         1 OUH      -0.471900
      7 CD2          0.4060     1.5470     2.7220 cd         1 OUH       0.328200
      8 ND1          2.3450     2.4170     2.2360 na         1 OUH       0.256100
      9 CE1          1.6100     3.3290     2.9060 cc         1 OUH       0.246400
     10 NE2          0.4500     2.8010     3.1940 nd         1 OUH      -0.601000
     11 CM           1.9790    -1.2490    -0.7220 c3         1 OUH       0.052000
     12 N2           1.3950    -1.3110    -2.0630 ns         1 OUH      -0.351900
     13 H1          -0.3340     0.9350     0.1280 hn         1 OUH       0.235800
     14 H           -0.3340    -0.3570    -0.8730 hn         1 OUH       0.235800
     15 HA           1.8310     0.8840    -0.5110 hx         1 OUH       0.059700
     16 HB2          2.3660     0.7170     0.7280 hc         1 OUH       0.076700
     17 HB3          2.8730    -0.5340     1.7440 hc         1 OUH       0.076700
     18 HD2         -0.4290     0.8620     2.8110 h4         1 OUH       0.000100
     19 HD1          3.2760     2.5440     1.8890 hn         1 OUH       0.132700
     20 HE1          1.9280     4.3320     3.1630 h5         1 OUH       0.036100
     21 HM2          1.6920    -2.1320    -0.1620 h1         1 OUH       0.045200
     22 HM3          3.0580    -1.2070    -0.8000 h1         1 OUH       0.045200
     23 HN2          0.7910    -0.5780    -2.3800 hn         1 OUH       0.143500
     24 O1           2.4650    -3.2030    -2.5150 o          1 OUH      -0.859300
     25 HN3         -0.3340    -0.5780     0.7460 hn         1 OUH       0.235800
@<TRIPOS>BOND
     1     1     2 1   
     2     1    13 1   
     3     1    14 1   
     4     1    25 1   
     5     2     5 1   
     6     2    11 1   
     7     2    15 1   
     8     3     4 1   
     9     3    12 1   
    10     3    24 1   
    11     5     6 1   
    12     5    16 1   
    13     5    17 1   
    14     6     7 2   
    15     6     8 1   
    16     7    10 1   
    17     7    18 1   
    18     8     9 1   
    19     8    19 1   
    20     9    10 2   
    21     9    20 1   
    22    11    12 1   
    23    11    21 1   
    24    11    22 1   
    25    12    23 1   
@<TRIPOS>SUBSTRUCTURE
     1 OUH         1 TEMP              0 ****  ****    0 ROOT
