@<TRIPOS>MOLECULE
molecule
   27    26     1     0     0
SMALL
bcc


@<TRIPOS>ATOM
      1 N            0.0000     0.0000     0.0000 nz         1 OUI      -0.814600
      2 CA           1.4690     0.0000     0.0000 c3         1 OUI       0.059500
      3 C            1.7040    -2.3310    -2.8870 c          1 OUI       0.981600
      4 O            1.1680    -2.3870    -4.1210 o          1 OUI      -0.822300
      5 CB           1.9780     0.0000     1.4420 c3         1 OUI      -0.022700
      6 CG1          1.4680     1.2490     2.1640 c3         1 OUI      -0.218400
      7 CG2          3.5080    -0.0000     1.4430 c3         1 OUI      -0.077100
      8 CD1          1.8730     1.1870     3.6390 c3         1 OUI      -0.057100
      9 CM           1.9790    -1.2490    -0.7220 c3         1 OUI       0.101000
     10 N2           1.3940    -1.3100    -2.0640 ns         1 OUI      -0.661900
     11 H1          -0.3340    -0.8350    -0.4400 hn         1 OUI       0.451467
     12 H           -0.3340     0.0360     0.9430 hn         1 OUI       0.451467
     13 HA           1.8300     0.8850    -0.5100 hx         1 OUI       0.115700
     14 HB           1.5010    -0.9350     1.7100 hc         1 OUI       0.031700
     15 HG13         1.0820     0.2720     2.4270 hc         1 OUI       0.061700
     16 HG12         0.5750     1.7770     1.8520 hc         1 OUI       0.061700
     17 HG21         3.8690     0.2420     2.4350 hc         1 OUI       0.061700
     18 HG22         3.8690    -0.9810     1.1570 hc         1 OUI       0.061700
     19 HG23         3.8700     0.7370     0.7370 hc         1 OUI       0.061700
     20 HD12         2.1130     0.1650     3.9050 hc         1 OUI       0.045033
     21 HD13         1.0520     1.5370     4.2530 hc         1 OUI       0.045033
     22 HD11         2.7400     1.8160     3.8020 hc         1 OUI       0.045033
     23 HM2          1.6930    -2.1320    -0.1630 h1         1 OUI       0.072700
     24 HM3          3.0590    -1.2050    -0.8000 h1         1 OUI       0.072700
     25 HN2          0.8010    -0.5710    -2.3850 hn         1 OUI       0.263500
     26 O1           2.4650    -3.2020    -2.5150 o          1 OUI      -0.822300
     27 HN3         -0.3340     0.7980    -0.5030 hn         1 OUI       0.451467
@<TRIPOS>BOND
     1     8     6 1
     2     6     5 1
     3     7     5 1
     4     5     2 1
     5     1     2 1
     6     2     9 1
     7     9    10 1
     8    10     3 1
     9     3     4 1
    10     1    11 1
    11     1    12 1
    12     2    13 1
    13     5    14 1
    14     6    15 1
    15     6    16 1
    16     7    17 1
    17     7    18 1
    18     7    19 1
    19     8    20 1
    20     8    21 1
    21     8    22 1
    22     9    23 1
    23     9    24 1
    24    10    25 1
    25     3    26 1
    26    27     1 1
@<TRIPOS>SUBSTRUCTURE
     1 OUI         1 TEMP              0 ****  ****    0 ROOT
