@<TRIPOS>MOLECULE
OUI
   27    26     1     0     0
SMALL
bcc


@<TRIPOS>ATOM
      1 N            0.0000     0.0000     0.0000 nz         1 OUI       0.041400
      2 CA           1.4690     0.0000     0.0000 c3         1 OUI      -0.126500
      3 C            1.7040    -2.3310    -2.8870 c          1 OUI       0.973600
      4 O            1.1680    -2.3870    -4.1210 o          1 OUI      -0.863800
      5 CB           1.9780     0.0000     1.4420 c3         1 OUI       0.043300
      6 CG1          1.4680     1.2490     2.1640 c3         1 OUI      -0.182400
      7 CG2          3.5080    -0.0000     1.4430 c3         1 OUI       0.001900
      8 CD1          1.8730     1.1870     3.6390 c3         1 OUI       0.059900
      9 CM           1.9790    -1.2490    -0.7220 c3         1 OUI       0.061000
     10 N2           1.3940    -1.3100    -2.0640 ns         1 OUI      -0.350900
     11 H1          -0.3340    -0.8350    -0.4400 hn         1 OUI       0.228133
     12 H           -0.3340     0.0360     0.9430 hn         1 OUI       0.228133
     13 HA           1.8300     0.8850    -0.5100 hx         1 OUI       0.096700
     14 HB           1.5010    -0.9350     1.7100 hc         1 OUI       0.011700
     15 HG13         1.0820     0.2720     2.4270 hc         1 OUI       0.035200
     16 HG12         0.5750     1.7770     1.8520 hc         1 OUI       0.035200
     17 HG21         3.8690     0.2420     2.4350 hc         1 OUI       0.028700
     18 HG22         3.8690    -0.9810     1.1570 hc         1 OUI       0.028700
     19 HG23         3.8700     0.7370     0.7370 hc         1 OUI       0.028700
     20 HD12         2.1130     0.1650     3.9050 hc         1 OUI       0.009033
     21 HD13         1.0520     1.5370     4.2530 hc         1 OUI       0.009033
     22 HD11         2.7400     1.8160     3.8020 hc         1 OUI       0.009033
     23 HM2          1.6930    -2.1320    -0.1630 h1         1 OUI       0.044700
     24 HM3          3.0590    -1.2050    -0.8000 h1         1 OUI       0.044700
     25 HN2          0.8010    -0.5710    -2.3850 hn         1 OUI       0.140500
     26 O1           2.4650    -3.2020    -2.5150 o          1 OUI      -0.863800
     27 HN3         -0.3340     0.7980    -0.5030 hn         1 OUI       0.228133
@<TRIPOS>BOND
     1     1     2 1   
     2     1    11 1   
     3     1    12 1   
     4     1    27 1   
     5     2     5 1   
     6     2     9 1   
     7     2    13 1   
     8     3     4 1   
     9     3    10 1   
    10     3    26 1   
    11     5     6 1   
    12     5     7 1   
    13     5    14 1   
    14     6     8 1   
    15     6    15 1   
    16     6    16 1   
    17     7    17 1   
    18     7    18 1   
    19     7    19 1   
    20     8    20 1   
    21     8    21 1   
    22     8    22 1   
    23     9    10 1   
    24     9    23 1   
    25     9    24 1   
    26    10    25 1   
@<TRIPOS>SUBSTRUCTURE
     1 OUI         1 TEMP              0 ****  ****    0 ROOT
