@<TRIPOS>MOLECULE
OUK
   30    29     1     0     0
SMALL
bcc


@<TRIPOS>ATOM
      1 N            0.0000     0.0000     0.0000 nz         1 OUK       0.033400
      2 CA           1.4680     0.0000     0.0000 c3         1 OUK      -0.084500
      3 C            1.7050    -2.3330    -2.8860 c          1 OUK       0.969600
      4 O            1.1680    -2.3900    -4.1190 o          1 OUK      -0.845300
      5 CB           1.9790     0.0000     1.4430 c3         1 OUK      -0.035400
      6 CG           1.5730     1.3070     2.1260 c3         1 OUK      -0.031400
      7 CD           2.0830     1.3070     3.5690 c3         1 OUK      -0.029400
      8 CE           1.6770     2.6150     4.2530 c3         1 OUK      -0.051200
      9 NZ           2.1670     2.6160     5.6380 nz         1 OUK       0.091400
     10 CM           1.9790    -1.2490    -0.7210 c3         1 OUK       0.066000
     11 N2           1.3960    -1.3110    -2.0630 ns         1 OUK      -0.351900
     12 O1           2.4670    -3.2030    -2.5140 o          1 OUK      -0.845300
     13 H2          -0.3340     0.8960    -0.2970 hn         1 OUK       0.231800
     14 H1          -0.3340    -0.7050    -0.6270 hn         1 OUK       0.231800
     15 HA           1.8300     0.8850    -0.5110 hx         1 OUK       0.089700
     16 HB2          3.0590    -0.0880     1.4440 hc         1 OUK       0.057200
     17 HB3          1.5470    -0.8370     1.9790 hc         1 OUK       0.057200
     18 HG2          0.4930     1.3960     2.1250 hc         1 OUK       0.021200
     19 HG3          2.0040     2.1440     1.5900 hc         1 OUK       0.021200
     20 HD2          1.6520     0.4710     4.1050 hc         1 OUK       0.043700
     21 HD3          3.1630     1.2190     3.5700 hc         1 OUK       0.043700
     22 HE2          0.5980     2.7040     4.2520 hx         1 OUK       0.086200
     23 HE3          2.1090     3.4520     3.7170 hx         1 OUK       0.086200
     24 HZ3          1.7680     1.8430     6.1330 hn         1 OUK       0.227800
     25 HZ1          3.1650     2.5330     5.6390 hn         1 OUK       0.227800
     26 HZ2          1.9030     3.4710     6.0850 hn         1 OUK       0.227800
     27 HM3          1.6930    -2.1320    -0.1610 h1         1 OUK       0.043200
     28 HM2          3.0590    -1.2060    -0.7980 h1         1 OUK       0.043200
     29 HN2          0.8060    -0.5690    -2.3870 hn         1 OUK       0.141500
     30 HN3         -0.3340    -0.2310     0.9150 hn         1 OUK       0.231800
@<TRIPOS>BOND
     1     1     2 1   
     2     1    13 1   
     3     1    14 1   
     4     1    30 1   
     5     2     5 1   
     6     2    10 1   
     7     2    15 1   
     8     3     4 1   
     9     3    11 1   
    10     3    12 1   
    11     5     6 1   
    12     5    16 1   
    13     5    17 1   
    14     6     7 1   
    15     6    18 1   
    16     6    19 1   
    17     7     8 1   
    18     7    20 1   
    19     7    21 1   
    20     8     9 1   
    21     8    22 1   
    22     8    23 1   
    23     9    24 1   
    24     9    25 1   
    25     9    26 1   
    26    10    11 1   
    27    10    27 1   
    28    10    28 1   
    29    11    29 1   
@<TRIPOS>SUBSTRUCTURE
     1 OUK         1 TEMP              0 ****  ****    0 ROOT
