@<TRIPOS>MOLECULE
OUL
   33    34     1     0     0
SMALL
bcc


@<TRIPOS>ATOM
      1 CAF          0.0000     0.0000     0.0000 ca         1 OUL      -0.135250
      2 CAE          1.3770     0.0000     0.0000 ca         1 OUL       0.007000
      3 CAD          2.0740     0.0000     1.2100 ca         1 OUL      -0.256600
      4 CAB          3.5500     0.0010     1.2150 c          1 OUL       0.358700
      5 OAC          4.1620     0.0010     0.1640 o          1 OUL      -0.416100
      6 NAA          4.2220     0.0000     2.3840 nz         1 OUL       0.202600
      7 CAS          1.3700    -0.0010     2.4180 ca         1 OUL       0.007000
      8 CAR         -0.0070     0.0000     2.4100 ca         1 OUL      -0.135250
      9 CAG         -0.6960     0.0000     1.2030 ca         1 OUL       0.196100
     10 OAH         -2.0530     0.0050     1.1990 os         1 OUL      -0.198200
     11 CAI         -2.6940    -1.0970     0.7350 ca         1 OUL       0.196100
     12 CAJ         -1.9660    -2.2320     0.4010 ca         1 OUL      -0.135250
     13 CAK         -2.6120    -3.3530    -0.0700 ca         1 OUL       0.007000
     14 CAL         -4.0010    -3.3480    -0.2140 ca         1 OUL      -0.256600
     15 CAO         -4.6980    -4.5470    -0.7190 c          1 OUL       0.358700
     16 OAQ         -4.0630    -5.5420    -1.0120 o          1 OUL      -0.416100
     17 NAP         -6.0390    -4.5390    -0.8580 nz         1 OUL       0.202600
     18 CAM         -4.7300    -2.2040     0.1220 ca         1 OUL       0.007000
     19 CAN         -4.0770    -1.0890     0.5990 ca         1 OUL      -0.135250
     20 H1          -0.5410     0.0420    -0.9380 ha         1 OUL       0.143500
     21 H2           1.9190     0.0530    -0.9370 ha         1 OUL       0.116750
     22 H3           3.9870     0.8230     2.9030 hn         1 OUL       0.250467
     23 H4           3.9700    -0.8110     2.9130 hn         1 OUL       0.250467
     24 H5           1.9070     0.0520     3.3580 ha         1 OUL       0.116750
     25 H6          -0.5530     0.0180     3.3460 ha         1 OUL       0.143500
     26 H7          -0.8880    -2.2360     0.5130 ha         1 OUL       0.143500
     27 H8          -2.0430    -4.2380    -0.3300 ha         1 OUL       0.116750
     28 H9          -6.4650    -4.3700     0.0320 hn         1 OUL       0.250467
     29 H10         -6.3050    -3.8180    -1.4980 hn         1 OUL       0.250467
     30 H11         -5.8080    -2.1960     0.0140 ha         1 OUL       0.116750
     31 H12         -4.6420    -0.2010     0.8590 ha         1 OUL       0.143500
     32 HAA3         5.2060    -0.0290     2.2040 hn         1 OUL       0.250467
     33 HAP3        -6.3440    -5.4270    -1.2050 hn         1 OUL       0.250467
@<TRIPOS>BOND
     1     1     2 ar  
     2     1     9 ar  
     3     1    20 1   
     4     2     3 ar  
     5     2    21 1   
     6     3     4 1   
     7     3     7 ar  
     8     4     5 2   
     9     4     6 1   
    10     6    22 1   
    11     6    23 1   
    12     6    32 1   
    13     7     8 ar  
    14     7    24 1   
    15     8     9 ar  
    16     8    25 1   
    17     9    10 1   
    18    10    11 1   
    19    11    12 ar  
    20    11    19 ar  
    21    12    13 ar  
    22    12    26 1   
    23    13    14 ar  
    24    13    27 1   
    25    14    15 1   
    26    14    18 ar  
    27    15    16 2   
    28    15    17 1   
    29    17    28 1   
    30    17    29 1   
    31    17    33 1   
    32    18    19 ar  
    33    18    30 1   
    34    19    31 1   
@<TRIPOS>SUBSTRUCTURE
     1 OUL         1 TEMP              0 ****  ****    0 ROOT
