@<TRIPOS>MOLECULE
molecule
   33    32     1     0     0
SMALL
bcc


@<TRIPOS>ATOM
      1 N            0.0000     0.0000     0.0000 nz         1 OUR      -0.819600
      2 CA           1.4690     0.0000     0.0000 c3         1 OUR       0.091500
      3 C            1.7010    -2.3330    -2.8870 c          1 OUR       0.966600
      4 O            2.4640    -3.2030    -2.5160 o          1 OUR      -0.611800
      5 CB           1.9800     0.0000     1.4420 c3         1 OUR      -0.106400
      6 CG           1.5760     1.3080     2.1260 c3         1 OUR      -0.110400
      7 CD           2.0870     1.3070     3.5680 c3         1 OUR       0.021300
      8 NE           1.6990     2.5590     4.2240 nu         1 OUR      -0.376100
      9 CZ           2.0490     2.7860     5.5270 c2         1 OUR       0.307700
     10 NH1          2.7410     1.8680     6.1990 nz         1 OUR      -0.735600
     11 NH2          1.6980     3.9240     6.1220 nv         1 OUR      -0.431200
     12 CM           1.9780    -1.2490    -0.7220 c3         1 OUR       0.105000
     13 N2           1.3940    -1.3110    -2.0640 ns         1 OUR      -0.656900
     14 O1           1.1640    -2.3900    -4.1190 o          1 OUR      -0.611800
     15 H           -0.3340    -0.7550    -0.5660 hn         1 OUR       0.461467
     16 H2          -0.3340    -0.1120     0.9370 hn         1 OUR       0.461467
     17 HA           1.8290     0.8850    -0.5110 hx         1 OUR       0.122700
     18 HB3          1.5490    -0.8370     1.9780 hc         1 OUR       0.096200
     19 HB2          3.0600    -0.0890     1.4420 hc         1 OUR       0.096200
     20 HG3          0.4960     1.3970     2.1250 hc         1 OUR       0.068700
     21 HG2          2.0080     2.1440     1.5900 hc         1 OUR       0.068700
     22 HD3          1.6550     0.4700     4.1040 h1         1 OUR       0.071700
     23 HD2          3.1670     1.2180     3.5680 h1         1 OUR       0.071700
     24 HE           1.1700     3.2440     3.7210 hn         1 OUR       0.353700
     25 HH12         2.9110     2.1940     7.1300 hn         1 OUR       0.488467
     26 HH11         3.6140     1.7030     5.7390 hn         1 OUR       0.488467
     27 HH22         1.9530     4.0900     7.0750 hn         1 OUR       0.350700
     28 HM2          3.0580    -1.2050    -0.8000 h1         1 OUR       0.088200
     29 HM3          1.6930    -2.1310    -0.1630 h1         1 OUR       0.088200
     30 HN2          0.7890    -0.5790    -2.3800 hn         1 OUR       0.290500
     31 HH21         1.1770     4.6130     5.6170 hn         1 OUR       0.350700
     32 HN3         -0.3340     0.8620    -0.3850 hn         1 OUR       0.461467
     33 HH13         2.2190     1.0140     6.2330 hn         1 OUR       0.488467
@<TRIPOS>BOND
     1    11     9 1
     2    10     9 1
     3     9     8 2
     4     8     7 1
     5     7     6 1
     6     6     5 1
     7     5     2 1
     8     1     2 1
     9     2    12 1
    10    12    13 1
    11    13     3 1
    12     3     4 1
    13     3    14 1
    14     1    15 1
    15     1    16 1
    16     2    17 1
    17     5    18 1
    18     5    19 1
    19     6    20 1
    20     6    21 1
    21     7    22 1
    22     7    23 1
    23     8    24 1
    24    10    25 1
    25    10    26 1
    26    11    27 1
    27    12    28 1
    28    12    29 1
    29    13    30 1
    30    11    31 1
    31    32     1 1
    32    33    10 1
@<TRIPOS>SUBSTRUCTURE
     1 OUR         1 TEMP              0 ****  ****    0 ROOT
