@<TRIPOS>MOLECULE
OUT
    6     5     1     0     0
SMALL
bcc


@<TRIPOS>ATOM
      1 N          -0.0180   -0.0000   -0.0140 n         1 OUT     -0.777000
      2 C           1.4000   -0.0000   -0.0230 c         1 OUT      1.009600
      3 O1          1.9910    0.0000    1.1030 o         1 OUT     -0.870300
      4 O2          1.9770   -0.0000   -1.1550 o         1 OUT     -0.870300
      5 HN1        -0.5090    0.0000    0.8350 hn        1 OUT      0.253500
      6 HN2        -0.5190    0.0000   -0.8570 hn        1 OUT      0.253500
@<TRIPOS>BOND
     1    1    2 1
     2    1    5 1
     3    1    6 1
     4    2    3 1
     5    2    4 1
@<TRIPOS>SUBSTRUCTURE
     1 OUT         1 TEMP              0 ****  ****    0 ROOT
