@<TRIPOS>MOLECULE
OUY
   50    52     1     0     0
SMALL
bcc


@<TRIPOS>ATOM
      1 FAH          0.0000     0.0000     0.0000 f          1 OUY      -0.121900
      2 CAY          1.3510     0.0000     0.0000 ca         1 OUY       0.150900
      3 CAL          2.0440     0.0000     1.1980 ca         1 OUY      -0.161000
      4 CAV          3.4280     0.0000     1.1960 ca         1 OUY       0.162900
      5 FAG          4.1050    -0.0010     2.3650 f          1 OUY      -0.111900
      6 CAI          4.1180    -0.0000    -0.0040 ca         1 OUY      -0.139000
      7 CAJ          3.4250     0.0000    -1.2000 ca         1 OUY      -0.025000
      8 CAZ          2.0440    -0.0050    -1.1990 ca         1 OUY      -0.194300
      9 CAP          1.2890    -0.0040    -2.5040 c3         1 OUY       0.108300
     10 NAR          0.7410    -1.3400    -2.7520 ns         1 OUY      -0.112900
     11 CAU          0.0240    -1.5770    -3.8680 c          1 OUY       0.568300
     12 OAD         -0.2510    -0.6620    -4.6210 o          1 OUY      -0.733100
     13 CBA         -0.4260    -2.9400    -4.1750 cc         1 OUY      -0.130400
     14 CBB         -0.2320    -3.9840    -3.2380 c          1 OUY       0.583700
     15 OAE          0.3110    -3.7360    -2.1760 o          1 OUY      -0.638500
     16 NBE         -0.6330    -5.2410    -3.4890 n          1 OUY       0.197200
     17 OAF         -0.4140    -6.2420    -2.5120 oh         1 OUY      -0.405100
     18 CAX         -1.0550    -3.2190    -5.3950 cd         1 OUY      -0.189200
     19 NAB         -1.2630    -2.2330    -6.3230 nz         1 OUY       0.256600
     20 CBC         -1.4850    -4.5990    -5.6490 ca         1 OUY      -0.242100
     21 CAM         -2.1190    -4.9510    -6.8440 ca         1 OUY      -0.053000
     22 CBD         -1.2530    -5.5830    -4.6700 ca         1 OUY       0.378200
     23 NAQ         -1.6370    -6.8340    -4.8900 nb         1 OUY      -0.556000
     24 CAK         -2.2350    -7.1880    -6.0100 ca         1 OUY       0.496200
     25 CAW         -2.4960    -6.2710    -7.0140 ca         1 OUY      -0.184600
     26 CAO         -3.1840    -6.7080    -8.2820 c3         1 OUY       0.037900
     27 CAN         -2.1360    -7.1450    -9.3070 c3         1 OUY      -0.069400
     28 CAT         -2.8230    -7.5820   -10.5740 c          1 OUY       0.691100
     29 OAC         -4.0280    -7.5470   -10.6510 o          1 OUY      -0.578000
     30 OAS         -2.0960    -8.0100   -11.6190 os         1 OUY      -0.412900
     31 CAA         -2.8260    -8.4150   -12.8080 c3         1 OUY       0.272700
     32 H1           1.5040     0.0190     2.1370 ha         1 OUY       0.145000
     33 H2           5.2010     0.0020    -0.0060 ha         1 OUY       0.133000
     34 H3           3.9660    -0.0020    -2.1390 ha         1 OUY       0.114000
     35 H4           0.4800     0.7150    -2.4530 h1         1 OUY       0.043200
     36 H5           1.9610     0.2650    -3.3100 h1         1 OUY       0.043200
     37 H6           0.9310    -2.0860    -2.1120 hn         1 OUY       0.247500
     38 H7          -1.1130    -6.2230    -1.8790 ho         1 OUY       0.427000
     39 H8          -0.3930    -1.7900    -6.5410 hn         1 OUY       0.230467
     40 H9          -1.6500    -2.6350    -7.1550 hn         1 OUY       0.230467
     41 H10         -2.3110    -4.2130    -7.6130 ha         1 OUY       0.110000
     42 H11         -2.5320    -8.2210    -6.1460 h4         1 OUY       0.009100
     43 H12         -3.7590    -5.8830    -8.6830 hc         1 OUY       0.046700
     44 H13         -3.8460    -7.5390    -8.0660 hc         1 OUY       0.046700
     45 H14         -1.5600    -7.9710    -8.9060 hc         1 OUY       0.036200
     46 H15         -1.4740    -6.3150    -9.5230 hc         1 OUY       0.036200
     47 H16         -2.1250    -8.7380   -13.5680 h1         1 OUY       0.008033
     48 H17         -3.4930    -9.2320   -12.5610 h1         1 OUY       0.008033
     49 H18         -3.4030    -7.5770   -13.1800 h1         1 OUY       0.008033
     50 HAB3        -1.8960    -1.5530    -5.9510 hn         1 OUY       0.230467
@<TRIPOS>BOND
     1     1     2 1   
     2     2     3 ar  
     3     2     8 ar  
     4     3     4 ar  
     5     3    32 1   
     6     4     5 1   
     7     4     6 ar  
     8     6     7 ar  
     9     6    33 1   
    10     7     8 ar  
    11     7    34 1   
    12     8     9 1   
    13     9    10 1   
    14     9    35 1   
    15     9    36 1   
    16    10    11 1   
    17    10    37 1   
    18    11    12 2   
    19    11    13 1   
    20    13    14 1   
    21    13    18 2   
    22    14    15 2   
    23    14    16 1   
    24    16    17 1   
    25    16    22 1   
    26    17    38 1   
    27    18    19 1   
    28    18    20 1   
    29    19    39 1   
    30    19    40 1   
    31    19    50 1   
    32    20    21 ar  
    33    20    22 ar  
    34    21    25 ar  
    35    21    41 1   
    36    22    23 ar  
    37    23    24 ar  
    38    24    25 ar  
    39    24    42 1   
    40    25    26 1   
    41    26    27 1   
    42    26    43 1   
    43    26    44 1   
    44    27    28 1   
    45    27    45 1   
    46    27    46 1   
    47    28    29 2   
    48    28    30 1   
    49    30    31 1   
    50    31    47 1   
    51    31    48 1   
    52    31    49 1   
@<TRIPOS>SUBSTRUCTURE
     1 OUY         1 TEMP              0 ****  ****    0 ROOT
