@<TRIPOS>MOLECULE
molecule
   50    52     1     0     0
SMALL
bcc


@<TRIPOS>ATOM
      1 FAH          0.0000     0.0000     0.0000 f          1 OUY      -0.129900
      2 CAY          1.3510     0.0000     0.0000 ca         1 OUY       0.178900
      3 CAL          2.0440     0.0000     1.1980 ca         1 OUY      -0.207000
      4 CAV          3.4280     0.0000     1.1960 ca         1 OUY       0.187900
      5 FAG          4.1050    -0.0010     2.3650 f          1 OUY      -0.116900
      6 CAI          4.1180    -0.0000    -0.0040 ca         1 OUY      -0.180000
      7 CAJ          3.4250     0.0000    -1.2000 ca         1 OUY      -0.056000
      8 CAZ          2.0440    -0.0050    -1.1990 ca         1 OUY      -0.194300
      9 CAP          1.2890    -0.0040    -2.5040 c3         1 OUY       0.160300
     10 NAR          0.7410    -1.3400    -2.7520 ns         1 OUY      -0.515900
     11 CAU          0.0240    -1.5770    -3.8680 c          1 OUY       0.664300
     12 OAD         -0.2510    -0.6620    -4.6210 o          1 OUY      -0.679100
     13 CBA         -0.4260    -2.9400    -4.1750 cc         1 OUY      -0.177400
     14 CBB         -0.2320    -3.9840    -3.2380 c          1 OUY       0.713700
     15 OAE          0.3110    -3.7360    -2.1760 o          1 OUY      -0.578500
     16 NBE         -0.6330    -5.2410    -3.4890 n          1 OUY      -0.269800
     17 OAF         -0.4140    -6.2420    -2.5120 oh         1 OUY      -0.306100
     18 CAX         -1.0550    -3.2190    -5.3950 cd         1 OUY       0.065800
     19 NAB         -1.2630    -2.2330    -6.3230 nz         1 OUY      -0.660400
     20 CBC         -1.4850    -4.5990    -5.6490 ca         1 OUY      -0.270100
     21 CAM         -2.1190    -4.9510    -6.8440 ca         1 OUY      -0.069000
     22 CBD         -1.2530    -5.5830    -4.6700 ca         1 OUY       0.606200
     23 NAQ         -1.6370    -6.8340    -4.8900 nb         1 OUY      -0.679000
     24 CAK         -2.2350    -7.1880    -6.0100 ca         1 OUY       0.521200
     25 CAW         -2.4960    -6.2710    -7.0140 ca         1 OUY      -0.200600
     26 CAO         -3.1840    -6.7080    -8.2820 c3         1 OUY      -0.030100
     27 CAN         -2.1360    -7.1450    -9.3070 c3         1 OUY      -0.127400
     28 CAT         -2.8230    -7.5820   -10.5740 c          1 OUY       0.630100
     29 OAC         -4.0280    -7.5470   -10.6510 o          1 OUY      -0.541000
     30 OAS         -2.0960    -8.0100   -11.6190 os         1 OUY      -0.423900
     31 CAA         -2.8260    -8.4150   -12.8080 c3         1 OUY       0.138700
     32 H1           1.5040     0.0190     2.1370 ha         1 OUY       0.172000
     33 H2           5.2010     0.0020    -0.0060 ha         1 OUY       0.162000
     34 H3           3.9660    -0.0020    -2.1390 ha         1 OUY       0.147000
     35 H4           0.4800     0.7150    -2.4530 h1         1 OUY       0.073200
     36 H5           1.9610     0.2650    -3.3100 h1         1 OUY       0.073200
     37 H6           0.9310    -2.0860    -2.1120 hn         1 OUY       0.373500
     38 H7          -1.1130    -6.2230    -1.8790 ho         1 OUY       0.430000
     39 H8          -0.3930    -1.7900    -6.5410 hn         1 OUY       0.475800
     40 H9          -1.6500    -2.6350    -7.1550 hn         1 OUY       0.475800
     41 H10         -2.3110    -4.2130    -7.6130 ha         1 OUY       0.133000
     42 H11         -2.5320    -8.2210    -6.1460 h4         1 OUY       0.065100
     43 H12         -3.7590    -5.8830    -8.6830 hc         1 OUY       0.082200
     44 H13         -3.8460    -7.5390    -8.0660 hc         1 OUY       0.082200
     45 H14         -1.5600    -7.9710    -8.9060 hc         1 OUY       0.074700
     46 H15         -1.4740    -6.3150    -9.5230 hc         1 OUY       0.074700
     47 H16         -2.1250    -8.7380   -13.5680 h1         1 OUY       0.058033
     48 H17         -3.4930    -9.2320   -12.5610 h1         1 OUY       0.058033
     49 H18         -3.4030    -7.5770   -13.1800 h1         1 OUY       0.058033
     50 HAB3        -1.8960    -1.5530    -5.9510 hn         1 OUY       0.475800
@<TRIPOS>BOND
     1     7     6 ar
     2     7     8 ar
     3    12    11 2
     4     6     4 ar
     5    19    18 1
     6     9     8 1
     7     9    10 1
     8     8     2 ar
     9    11    10 1
    10    11    13 1
    11     4     5 1
    12     4     3 ar
    13    18    13 2
    14    18    20 1
    15    13    14 1
    16     2     3 ar
    17     2     1 1
    18    21    20 ar
    19    21    25 ar
    20    29    28 2
    21    20    22 ar
    22    28    27 1
    23    28    30 1
    24    31    30 1
    25    26    27 1
    26    26    25 1
    27    25    24 ar
    28    14    15 2
    29    14    16 1
    30    22    16 1
    31    22    23 ar
    32    16    17 1
    33    24    23 ar
    34     3    32 1
    35     6    33 1
    36     7    34 1
    37     9    35 1
    38     9    36 1
    39    10    37 1
    40    17    38 1
    41    19    39 1
    42    19    40 1
    43    21    41 1
    44    24    42 1
    45    26    43 1
    46    26    44 1
    47    27    45 1
    48    27    46 1
    49    31    47 1
    50    31    48 1
    51    31    49 1
    52    50    19 1
@<TRIPOS>SUBSTRUCTURE
     1 OUY         1 TEMP              0 ****  ****    0 ROOT
