@<TRIPOS>MOLECULE
OVA
   47    48     1     0     0
SMALL
bcc


@<TRIPOS>ATOM
      1 C5         -0.3410   -0.0860    0.2580 c3        1 OVA     -0.177400
      2 C4          1.1320   -0.1800   -0.0210 c         1 OVA      0.559100
      3 C3          2.0240   -0.1480    1.2070 c3        1 OVA      0.019100
      4 C2          1.6730    1.0280    2.1570 c3        1 OVA      0.204800
      5 C1          0.1510    0.9750    2.4910 c3        1 OVA      0.162800
      6 C6         -0.6550    1.0620    1.1880 c3        1 OVA     -0.099400
      7 O11        -0.0790   -0.2850    3.1240 oh        1 OVA     -0.606800
      8 C11        -0.2620    2.1130    3.4140 c3        1 OVA     -0.124100
      9 C21         2.5570    0.9890    3.4080 cx        1 OVA      0.063800
     10 C22         2.7610    2.2680    4.1660 cx        1 OVA      0.077100
     11 C23         3.1140    2.2810    5.6240 c3        1 OVA     -0.043200
     12 C24         3.2380    3.6560    6.1620 c2        1 OVA     -0.177200
     13 C25         3.2200    3.9400    7.4740 c2        1 OVA     -0.118400
     14 C2A         2.7560   -0.3460    4.0500 c3        1 OVA     -0.085100
     15 O2A         3.7630    1.7740    3.2640 os        1 OVA     -0.398600
     16 C2B         3.3670    5.3290    7.9720 c3        1 OVA     -0.059900
     17 C2C         3.0510    2.8950    8.5130 c3        1 OVA     -0.059900
     18 O31         3.3890    0.0390    0.8480 os        1 OVA     -0.403600
     19 C31         4.0330   -1.1470    0.4060 c3        1 OVA      0.113700
     20 O41         1.5770   -0.3350   -1.1610 o         1 OVA     -0.518100
     21 O1          1.8730    2.2650    1.4840 oh        1 OVA     -0.602800
     22 H51        -0.9030    0.0340   -0.7040 hc        1 OVA      0.073200
     23 H52        -0.6600   -1.0540    0.7320 hc        1 OVA      0.073200
     24 H3          1.8750   -1.1190    1.7610 h1        1 OVA      0.083700
     25 H61        -1.7490    1.0550    1.4290 hc        1 OVA      0.064700
     26 H62        -0.4120    2.0390    0.6920 hc        1 OVA      0.064700
     27 H12        -1.0090   -0.2960    3.3800 ho        1 OVA      0.408000
     28 H111        0.0620    3.0860    2.9740 hc        1 OVA      0.053033
     29 H112        0.2140    1.9860    4.4160 hc        1 OVA      0.053033
     30 H113       -1.3710    2.1210    3.5420 hc        1 OVA      0.053033
     31 H22         2.2520    3.1850    3.7950 h1        1 OVA      0.099700
     32 H231        2.3180    1.7170    6.1870 hc        1 OVA      0.064200
     33 H232        4.0870    1.7360    5.7840 hc        1 OVA      0.064200
     34 H24         3.3700    4.4570    5.4170 ha        1 OVA      0.129000
     35 HA1         3.2660   -0.2360    5.0380 hc        1 OVA      0.056700
     36 HA2         3.4020   -0.9830    3.3940 hc        1 OVA      0.056700
     37 HA3         1.7720   -0.8510    4.2030 hc        1 OVA      0.056700
     38 HB1         2.4890    5.6040    8.6090 hc        1 OVA      0.041700
     39 HB2         3.4390    6.0640    7.1340 hc        1 OVA      0.041700
     40 HB3         4.2910    5.4150    8.5970 hc        1 OVA      0.041700
     41 HC1         3.7570    2.0450    8.3330 hc        1 OVA      0.041700
     42 HC2         3.2440    3.3040    9.5340 hc        1 OVA      0.041700
     43 HC3         2.0080    2.4900    8.4870 hc        1 OVA      0.041700
     44 H11         3.5340   -1.5480   -0.5100 h1        1 OVA      0.041700
     45 H12A        4.0360   -1.9150    1.2190 h1        1 OVA      0.041700
     46 H13         5.0760   -0.8150    0.1740 h1        1 OVA      0.041700
     47 HO1         2.8180    2.3100    1.2660 ho        1 OVA      0.445000
@<TRIPOS>BOND
     1    1    2 1   
     2    1    6 1   
     3    1   22 1   
     4    1   23 1   
     5    2    3 1   
     6    2   20 2   
     7    3    4 1   
     8    3   18 1   
     9    3   24 1   
    10    4    5 1   
    11    4    9 1   
    12    4   21 1   
    13    5    6 1   
    14    5    7 1   
    15    5    8 1   
    16    6   25 1   
    17    6   26 1   
    18    7   27 1   
    19    8   28 1   
    20    8   29 1   
    21    8   30 1   
    22    9   10 1   
    23    9   14 1   
    24    9   15 1   
    25   10   11 1   
    26   10   15 1   
    27   10   31 1   
    28   11   12 1   
    29   11   32 1   
    30   11   33 1   
    31   12   13 2   
    32   12   34 1   
    33   13   16 1   
    34   13   17 1   
    35   14   35 1   
    36   14   36 1   
    37   14   37 1   
    38   16   38 1   
    39   16   39 1   
    40   16   40 1   
    41   17   41 1   
    42   17   42 1   
    43   17   43 1   
    44   18   19 1   
    45   19   44 1   
    46   19   45 1   
    47   19   46 1   
    48   21   47 1   
@<TRIPOS>SUBSTRUCTURE
     1 OVA         1 TEMP              0 ****  ****    0 ROOT
