@<TRIPOS>MOLECULE
molecule
   47    48     1     0     0
SMALL
bcc


@<TRIPOS>ATOM
      1 C5           0.0000     0.0000     0.0000 c3         1 OVA      -0.176400
      2 C4           1.5110     0.0000     0.0000 c          1 OVA       0.552100
      3 C3           2.2290     0.0000     1.3310 c3         1 OVA       0.006100
      4 C2           1.6630     1.1310     2.1960 c3         1 OVA       0.212800
      5 C1           0.1430     0.9830     2.2920 c3         1 OVA       0.163800
      6 C6          -0.4880     1.1340     0.9080 c3         1 OVA      -0.098400
      7 O11         -0.1700    -0.3090     2.8190 oh         1 OVA      -0.611800
      8 C11         -0.4140     2.0590     3.2260 c3         1 OVA      -0.121100
      9 C21          2.2720     1.0660     3.5960 cx         1 OVA       0.021800
     10 C22          2.3180     2.3570     4.4150 cx         1 OVA       0.066100
     11 C23          2.1550     2.2480     5.9310 c3         1 OVA      -0.035200
     12 C24          2.2930     3.6150     6.5520 c2         1 OVA      -0.190200
     13 C25          3.2710     3.8580     7.3880 c2         1 OVA      -0.115400
     14 C2A          2.0640    -0.2490     4.3500 c3         1 OVA      -0.069100
     15 O2A          3.4870     1.7800     3.8270 op         1 OVA      -0.365600
     16 C2B          3.2960     5.1510     8.1630 c3         1 OVA      -0.055400
     17 C2C          4.3710     2.8470     7.5750 c3         1 OVA      -0.055400
     18 O31          3.6270     0.2080     1.1240 os         1 OVA      -0.386600
     19 C31          4.2190    -1.0820     0.9710 c3         1 OVA       0.121700
     20 O41          2.1300     0.0000    -1.0370 o          1 OVA      -0.502100
     21 O1           1.9810     2.3870     1.5950 oh         1 OVA      -0.602800
     22 H51         -0.3630    -0.9490     0.3770 hc         1 OVA       0.072200
     23 H52         -0.3630     0.1610    -1.0080 hc         1 OVA       0.072200
     24 H3           2.0690    -0.9490     1.8280 h1         1 OVA       0.086700
     25 H61         -0.1970     2.0870     0.4820 hc         1 OVA       0.064200
     26 H62         -1.5660     1.0850     0.9970 hc         1 OVA       0.064200
     27 H12         -1.1020    -0.3780     2.9470 ho         1 OVA       0.411000
     28 H111        -0.2410     1.7690     4.2560 hc         1 OVA       0.051033
     29 H112        -1.4780     2.1680     3.0570 hc         1 OVA       0.051033
     30 H113         0.0820     3.0010     3.0280 hc         1 OVA       0.051033
     31 H22          1.9390     3.2340     3.9040 h1         1 OVA       0.105700
     32 H231         1.1760     1.8450     6.1600 hc         1 OVA       0.060700
     33 H232         2.9180     1.5910     6.3300 hc         1 OVA       0.060700
     34 H24          1.5050     4.3460     6.4190 ha         1 OVA       0.123000
     35 HA1          1.4080    -0.0810     5.1950 hc         1 OVA       0.051700
     36 HA2          1.6180    -0.9790     3.6860 hc         1 OVA       0.051700
     37 HA3          3.0200    -0.6180     4.7030 hc         1 OVA       0.051700
     38 HB1          2.2820     5.5000     8.3160 hc         1 OVA       0.043367
     39 HB2          3.7710     4.9870     9.1230 hc         1 OVA       0.043367
     40 HB3          3.8540     5.8940     7.6060 hc         1 OVA       0.043367
     41 HC1          4.8300     2.6320     6.6170 hc         1 OVA       0.043367
     42 HC2          3.9580     1.9360     7.9900 hc         1 OVA       0.043367
     43 HC3          5.1180     3.2470     8.2510 hc         1 OVA       0.043367
     44 H11          5.1310    -0.9940     0.3930 h1         1 OVA       0.035700
     45 H12A         4.4490    -1.4920     1.9470 h1         1 OVA       0.035700
     46 H13          3.5280    -1.7380     0.4570 h1         1 OVA       0.035700
     47 HO1          2.8830     2.3850     1.3190 ho         1 OVA       0.444000
@<TRIPOS>BOND
     1     1     2 1
     2     1     6 1
     3     1    22 1
     4     1    23 1
     5     2     3 1
     6     2    20 2
     7     3     4 1
     8     3    18 1
     9     3    24 1
    10     4     5 1
    11     4     9 1
    12     4    21 1
    13     5     6 1
    14     5     7 1
    15     5     8 1
    16     6    25 1
    17     6    26 1
    18     7    27 1
    19     8    28 1
    20     8    29 1
    21     8    30 1
    22     9    10 1
    23     9    14 1
    24     9    15 1
    25    10    11 1
    26    10    15 1
    27    10    31 1
    28    11    12 1
    29    11    32 1
    30    11    33 1
    31    12    13 2
    32    12    34 1
    33    13    16 1
    34    13    17 1
    35    14    35 1
    36    14    36 1
    37    14    37 1
    38    16    38 1
    39    16    39 1
    40    16    40 1
    41    17    41 1
    42    17    42 1
    43    17    43 1
    44    18    19 1
    45    19    44 1
    46    19    45 1
    47    19    46 1
    48    21    47 1
@<TRIPOS>SUBSTRUCTURE
     1 OVA         1 TEMP              0 ****  ****    0 ROOT
