@<TRIPOS>MOLECULE
OVE
   36    38     1     0     0
SMALL
bcc


@<TRIPOS>ATOM
      1 O1P          0.0000     0.0000     0.0000 o          1 OVE      -0.561000
      2 P            1.6100     0.0000     0.0000 p5         1 OVE       0.635800
      3 S2P          2.3170     0.0000     1.9990 sh         1 OVE      -0.460200
      4 O3P          2.1040    -1.2080    -0.6980 o          1 OVE      -0.561000
      5 O2'          2.1470     1.3150    -0.7580 os         1 OVE      -0.395200
      6 C2'          3.5320     1.5530    -1.0160 c3         1 OVE       0.202100
      7 C3'          3.9930     2.8820    -0.3690 c3         1 OVE       0.129100
      8 O3'          2.8710     3.7280    -0.1080 oh         1 OVE      -0.545800
      9 C1'          3.7750     1.8240    -2.5230 c3         1 OVE       0.127800
     10 O4'          4.9920     2.6020    -2.5340 os         1 OVE      -0.405600
     11 C4'          4.9130     3.5190    -1.4300 c3         1 OVE       0.149100
     12 C5'          6.3060     3.7450    -0.8400 c3         1 OVE       0.216400
     13 O5'          7.1180     4.4410    -1.7890 oh         1 OVE      -0.584800
     14 N9           3.9610     0.5660    -3.2510 na         1 OVE       0.228000
     15 C8           5.1520    -0.0240    -3.5480 cc         1 OVE       0.243700
     16 N7           4.9490    -1.1310    -4.2020 nd         1 OVE      -0.525100
     17 C5           3.6180    -1.3200    -4.3650 ca         1 OVE      -0.237200
     18 C6           2.8270    -2.3090    -4.9740 ca         1 OVE       0.586200
     19 N6           3.4100    -3.4030    -5.5890 nv         1 OVE      -0.515500
     20 C4           2.9670    -0.2360    -3.7510 ca         1 OVE       0.301800
     21 N3           1.6390    -0.1860    -3.7660 nb         1 OVE      -0.621000
     22 C2           0.9380    -1.1390    -4.3440 ca         1 OVE       0.688900
     23 N1           1.5050    -2.1700    -4.9450 nb         1 OVE      -0.754000
     24 H2P          1.4810    -0.6920     2.7640 hs         1 OVE       0.208800
     25 H2'          4.1430     0.7280    -0.6730 h1         1 OVE       0.029700
     26 H3'          4.5470     2.6860     0.5410 h1         1 OVE       0.013700
     27 H1'          2.9560     2.3970    -2.9420 h2         1 OVE       0.065700
     28 HA           2.9100     4.0370     0.7820 ho         1 OVE       0.382000
     29 H4'          4.4920     4.4590    -1.7630 h1         1 OVE       0.038700
     30 H5'1         6.7600     2.7890    -0.6090 h1         1 OVE      -0.008800
     31 H5'2         6.2240     4.3340     0.0660 h1         1 OVE      -0.008800
     32 H5'          7.9090     4.7370    -1.3690 ho         1 OVE       0.379000
     33 H2          -0.1420    -1.0650    -4.3450 h5         1 OVE      -0.008900
     34 H8           6.1250     0.3700    -3.2790 h5         1 OVE       0.029800
     35 H61N         2.8360    -4.0990    -6.0220 hn         1 OVE       0.266800
     36 H62N         4.4070    -3.4970    -5.6020 hn         1 OVE       0.266800
@<TRIPOS>BOND
     1     1     2 1   
     2     2     3 1   
     3     2     4 1   
     4     2     5 1   
     5     3    24 1   
     6     5     6 1   
     7     6     7 1   
     8     6     9 1   
     9     6    25 1   
    10     7     8 1   
    11     7    11 1   
    12     7    26 1   
    13     8    28 1   
    14     9    10 1   
    15     9    14 1   
    16     9    27 1   
    17    10    11 1   
    18    11    12 1   
    19    11    29 1   
    20    12    13 1   
    21    12    30 1   
    22    12    31 1   
    23    13    32 1   
    24    14    15 1   
    25    14    20 1   
    26    15    16 2   
    27    15    34 1   
    28    16    17 1   
    29    17    18 ar  
    30    17    20 ar  
    31    18    19 1   
    32    18    23 ar  
    33    19    35 1   
    34    19    36 1   
    35    20    21 ar  
    36    21    22 ar  
    37    22    23 ar  
    38    22    33 1   
@<TRIPOS>SUBSTRUCTURE
     1 OVE         1 TEMP              0 ****  ****    0 ROOT
