@<TRIPOS>MOLECULE
molecule
   42    45     1     0     0
SMALL
bcc


@<TRIPOS>ATOM
      1 C1           0.0000     0.0000     0.0000 ca         1 OWL       0.139100
      2 C2           1.3840     0.0020     2.3990 ca         1 OWL       0.151600
      3 C3           1.3890     0.0000     0.0000 ca         1 OWL      -0.126500
      4 C4          -0.6950     0.0020     1.2030 ca         1 OWL      -0.126500
      5 C5          -0.0050     0.0020     2.3980 ca         1 OWL      -0.159000
      6 C6           2.0790     0.0000     1.1950 ca         1 OWL      -0.159000
      7 C7           4.2870    -0.1160     4.5930 ca         1 OWL      -0.159000
      8 C8           4.9050    -2.2620     2.9480 ca         1 OWL      -0.126500
      9 C9           3.3480    -0.5960     3.6890 ca         1 OWL       0.151600
     10 C10          5.5320    -0.7040     4.6710 ca         1 OWL      -0.126500
     11 C11          5.8460    -1.7790     3.8490 ca         1 OWL       0.139100
     12 C12          3.6620    -1.6660     2.8630 ca         1 OWL      -0.159000
     13 N1           2.0840     0.0010     3.6100 nu         1 OWL      -0.687000
     14 C13          8.2010    -1.6450     4.3560 cc         1 OWL       0.671400
     15 N2           9.4510    -2.1330     4.5810 na         1 OWL      -0.330900
     16 N3           8.2080    -0.3560     4.6020 nd         1 OWL      -0.745000
     17 C14         -1.9720    -0.5410    -1.2810 cd         1 OWL       0.671400
     18 N4          -2.7970    -0.5030    -2.3630 na         1 OWL      -0.330900
     19 N5          -2.5820    -1.1880    -0.3170 nc         1 OWL      -0.745000
     20 N6          -0.7010     0.0060    -1.2130 nu         1 OWL      -0.772300
     21 N7           7.1060    -2.3840     3.9370 nu         1 OWL      -0.772300
     22 C15         10.2310    -1.0710     4.9780 cc         1 OWL      -0.294600
     23 C16          9.4420     0.0160     4.9830 cd         1 OWL       0.337200
     24 C17         -3.9510    -1.1640    -2.0110 cd         1 OWL      -0.294600
     25 C18         -3.7950    -1.5780    -0.7420 cc         1 OWL       0.337200
     26 H3           1.9310    -0.0010    -0.9380 ha         1 OWL       0.149500
     27 H4          -1.7780     0.0020     1.2020 ha         1 OWL       0.149500
     28 H5          -0.5470     0.0030     3.3360 ha         1 OWL       0.140750
     29 H6           3.1620     0.0000     1.1950 ha         1 OWL       0.140750
     30 H7           4.0420     0.7210     5.2360 ha         1 OWL       0.140750
     31 H8           5.1500    -3.0990     2.3050 ha         1 OWL       0.149500
     32 H10          6.2650    -0.3290     5.3750 ha         1 OWL       0.149500
     33 H12          2.9290    -2.0420     2.1600 ha         1 OWL       0.140750
     34 HN1          1.6800     0.4270     4.4210 hn         1 OWL       0.445800
     35 HN6         -0.2900     0.4220    -2.0250 hn         1 OWL       0.446800
     36 HN7          7.2110    -3.3550     3.7210 hn         1 OWL       0.446800
     37 H15         11.2830    -1.1060     5.2370 h4         1 OWL       0.173000
     38 H16          9.7480     1.0200     5.2500 h4         1 OWL       0.040100
     39 H17         -4.8210    -1.3200    -2.6380 h4         1 OWL       0.173000
     40 H18         -4.5230    -2.1320    -0.1620 h4         1 OWL       0.040100
     41 HN2          9.7470    -3.0840     4.4770 hn         1 OWL       0.294200
     42 HN4         -2.6020    -0.0760    -3.2470 hn         1 OWL       0.294200
@<TRIPOS>BOND
     1    20     1 1
     2     4     1 ar
     3     1     3 ar
     4     5     2 ar
     5     6     2 ar
     6     2    13 1
     7     3     6 ar
     8     3    26 1
     9     4     5 ar
    10     4    27 1
    11     5    28 1
    12     6    29 1
    13     9     7 ar
    14     7    10 ar
    15     7    30 1
    16    12     8 ar
    17     8    11 ar
    18     8    31 1
    19    13     9 1
    20     9    12 ar
    21    10    11 ar
    22    10    32 1
    23    11    21 1
    24    12    33 1
    25    13    34 1
    26    21    14 1
    27    15    14 1
    28    14    16 2
    29    15    22 1
    30    16    23 1
    31    19    17 2
    32    20    17 1
    33    17    18 1
    34    24    18 1
    35    19    25 1
    36    20    35 1
    37    21    36 1
    38    22    23 2
    39    22    37 1
    40    23    38 1
    41    25    24 2
    42    24    39 1
    43    25    40 1
    44    15    41 1
    45    18    42 1
@<TRIPOS>SUBSTRUCTURE
     1 OWL         1 TEMP              0 ****  ****    0 ROOT
