@<TRIPOS>MOLECULE
molecule
   37    40     1     0     0
SMALL
bcc


@<TRIPOS>ATOM
      1 C1           0.0000     0.0000     0.0000 ca         1 OX1      -0.093500
      2 C2           1.4330    -0.0200     2.3970 ca         1 OX1      -0.114500
      3 C3           1.3620     0.0000     0.0000 ca         1 OX1      -0.085800
      4 C4          -0.6670    -0.0100     1.2200 ca         1 OX1      -0.128000
      5 C5           0.0420    -0.0200     2.4060 ca         1 OX1      -0.140000
      6 C6           2.1130     0.0000     1.2190 ca         1 OX1      -0.104300
      7 C7           2.2530     0.0100    -1.2310 c3         1 OX1       0.198400
      8 C8           3.6130     0.0090     0.9780 c3         1 OX1       0.215400
      9 C9           1.4640     0.0060    -2.5420 c3         1 OX1      -0.041400
     10 O1           3.1110    -1.1350    -1.0870 os         1 OX1      -0.166800
     11 C10          4.4280     0.0050     2.2730 c3         1 OX1      -0.067100
     12 O2           3.8710    -1.1350     0.1470 os         1 OX1      -0.210800
     13 C11          3.1650     1.2150    -1.0880 ca         1 OX1      -0.085800
     14 C12          4.9060     3.2620    -0.5280 ca         1 OX1      -0.140000
     15 C13          3.3000     2.2270    -1.9920 ca         1 OX1      -0.093500
     16 C14          3.8950     1.2160     0.1000 ca         1 OX1      -0.104300
     17 C15          4.7640     2.2260     0.3870 ca         1 OX1      -0.114500
     18 C16          4.1820     3.2620    -1.7060 ca         1 OX1      -0.128000
     19 C17          0.6750    -1.2990    -2.6590 c3         1 OX1      -0.195400
     20 C18         -0.0250    -1.3440    -3.9930 c          1 OX1       0.890600
     21 O3          -0.7810    -2.4050    -4.3190 o          1 OX1      -0.852800
     22 O4           0.0950    -0.4270    -4.7700 o          1 OX1      -0.852800
     23 H1          -0.5530     0.0080    -0.9320 ha         1 OX1       0.164000
     24 H4           1.9770    -0.0280     3.3340 ha         1 OX1       0.120500
     25 H2          -1.7500    -0.0090     1.2410 ha         1 OX1       0.125500
     26 H3          -0.4890    -0.0270     3.3490 ha         1 OX1       0.118000
     27 H12          2.1500     0.0900    -3.3760 hc         1 OX1       0.066200
     28 H13          0.7780     0.8440    -2.5530 hc         1 OX1       0.066200
     29 H5           5.4850     0.0090     2.0350 hc         1 OX1       0.046700
     30 H6           4.1910    -0.8820     2.8470 hc         1 OX1       0.046700
     31 H7           4.1860     0.8870     2.8550 hc         1 OX1       0.046700
     32 H9           5.5900     4.0750    -0.3180 ha         1 OX1       0.118000
     33 H11          2.7310     2.2240    -2.9140 ha         1 OX1       0.164000
     34 H8           5.3290     2.2230     1.3110 ha         1 OX1       0.120500
     35 H10          4.3020     4.0760    -2.4120 ha         1 OX1       0.125500
     36 H14         -0.0580    -1.3500    -1.8640 hc         1 OX1       0.043700
     37 H15          1.3540    -2.1390    -2.5790 hc         1 OX1       0.043700
@<TRIPOS>BOND
     1     1     3 ar
     2     1     4 ar
     3     1    23 1
     4     2     5 ar
     5     2     6 ar
     6     2    24 1
     7     3     6 ar
     8     3     7 1
     9     4     5 ar
    10     4    25 1
    11     5    26 1
    12     6     8 1
    13     7     9 1
    14     7    10 1
    15     7    13 1
    16     8    11 1
    17     8    12 1
    18     8    16 1
    19     9    19 1
    20     9    27 1
    21     9    28 1
    22    10    12 1
    23    11    29 1
    24    11    30 1
    25    11    31 1
    26    13    15 ar
    27    13    16 ar
    28    14    17 ar
    29    14    18 ar
    30    14    32 1
    31    15    18 ar
    32    15    33 1
    33    16    17 ar
    34    17    34 1
    35    18    35 1
    36    19    20 1
    37    19    36 1
    38    19    37 1
    39    20    21 1
    40    20    22 1
@<TRIPOS>SUBSTRUCTURE
     1 OX1         1 TEMP              0 ****  ****    0 ROOT
