@<TRIPOS>MOLECULE
OX1
   37    40     1     0     0
SMALL
bcc


@<TRIPOS>ATOM
      1 C1         -0.0200    0.0480   -0.1280 ca        1 OX1     -0.092000
      2 C2          1.3320    0.1140    2.3550 ca        1 OX1     -0.120000
      3 C3          1.3670    0.0440   -0.0760 ca        1 OX1     -0.084800
      4 C4         -0.7310    0.0940    1.0780 ca        1 OX1     -0.132500
      5 C5         -0.0670    0.1260    2.3020 ca        1 OX1     -0.141000
      6 C6          2.0440    0.0780    1.1660 ca        1 OX1     -0.101300
      7 C7          2.3260    0.0000   -1.2450 c3        1 OX1      0.221400
      8 C8          3.5440    0.0620    0.9900 c3        1 OX1      0.216400
      9 C9          1.7180   -0.1930   -2.6210 c3        1 OX1     -0.050400
     10 O1          3.2270   -1.1490   -0.9930 os        1 OX1     -0.205800
     11 C10         4.3560   -0.1030    2.2480 c3        1 OX1     -0.077100
     12 O2          3.8400   -1.1230    0.1540 os        1 OX1     -0.222800
     13 C11         3.2080    1.2280   -1.1080 ca        1 OX1     -0.084800
     14 C12         4.9330    3.3250   -0.5000 ca        1 OX1     -0.141000
     15 C13         3.3930    2.2440   -2.0330 ca        1 OX1     -0.092000
     16 C14         3.8900    1.2590    0.1330 ca        1 OX1     -0.101300
     17 C15         4.7540    2.2990    0.4360 ca        1 OX1     -0.120000
     18 C16         4.2590    3.2980   -1.7180 ca        1 OX1     -0.132500
     19 C17         0.9520   -1.4850   -2.7920 c3        1 OX1     -0.200400
     20 C18        -0.3990   -1.2470   -3.4910 c         1 OX1      0.906600
     21 O3         -0.7300   -2.0200   -4.4310 o         1 OX1     -0.848800
     22 O4         -1.1260   -0.2920   -3.0760 o         1 OX1     -0.848800
     23 H1         -0.5500    0.0030   -1.1090 ha        1 OX1      0.190500
     24 H4          1.8540    0.1310    3.3210 ha        1 OX1      0.121500
     25 H2         -1.8310    0.0990    1.0490 ha        1 OX1      0.127500
     26 H3         -0.6420    0.1580    3.2380 ha        1 OX1      0.116000
     27 H12         1.0190    0.6730   -2.7930 hc        1 OX1      0.059700
     28 H13         2.5430   -0.1370   -3.3780 hc        1 OX1      0.059700
     29 H5          5.4430   -0.1570    1.9980 hc        1 OX1      0.047700
     30 H6          4.1750    0.7650    2.9250 hc        1 OX1      0.047700
     31 H7          4.0600   -1.0450    2.7690 hc        1 OX1      0.047700
     32 H9          5.6110    4.1590   -0.2660 ha        1 OX1      0.116000
     33 H11         2.8630    2.2230   -2.9980 ha        1 OX1      0.190500
     34 H8          5.2890    2.3210    1.3950 ha        1 OX1      0.121500
     35 H10         4.4060    4.1120   -2.4430 ha        1 OX1      0.127500
     36 H14         0.7410   -1.9500   -1.7950 hc        1 OX1      0.039700
     37 H15         1.5540   -2.2160   -3.3860 hc        1 OX1      0.039700
@<TRIPOS>BOND
     1    1    3 ar  
     2    1    4 ar  
     3    1   23 1   
     4    2    5 ar  
     5    2    6 ar  
     6    2   24 1   
     7    3    6 ar  
     8    3    7 1   
     9    4    5 ar  
    10    4   25 1   
    11    5   26 1   
    12    6    8 1   
    13    7    9 1   
    14    7   10 1   
    15    7   13 1   
    16    8   11 1   
    17    8   12 1   
    18    8   16 1   
    19    9   19 1   
    20    9   27 1   
    21    9   28 1   
    22   10   12 1   
    23   11   29 1   
    24   11   30 1   
    25   11   31 1   
    26   13   15 ar  
    27   13   16 ar  
    28   14   17 ar  
    29   14   18 ar  
    30   14   32 1   
    31   15   18 ar  
    32   15   33 1   
    33   16   17 ar  
    34   17   34 1   
    35   18   35 1   
    36   19   20 1   
    37   19   36 1   
    38   19   37 1   
    39   20   21 1   
    40   20   22 1   
@<TRIPOS>SUBSTRUCTURE
     1 OX1         1 TEMP              0 ****  ****    0 ROOT
