@<TRIPOS>MOLECULE
OX3
   35    37     1     0     0
SMALL
bcc


@<TRIPOS>ATOM
      1 C1           0.0000     0.0000     0.0000 c2         1 OX3       0.128000
      2 O1          -0.6810    -0.0010    -1.1790 oh         1 OX3      -0.255000
      3 C2           1.3940     0.0000     0.0000 c2         1 OX3      -0.159000
      4 C3           2.0920     0.0000     1.2080 c2         1 OX3      -0.025000
      5 C4           1.3850     0.0000     2.4000 c3         1 OX3      -0.145000
      6 C5          -0.0000    -0.0000     2.4160 c2         1 OX3      -0.025000
      7 C6          -0.6980    -0.0010     1.2080 c2         1 OX3      -0.159000
      8 C7           2.1220     0.0000     3.6750 c2         1 OX3      -0.464000
      9 N8           1.5200     0.0010     4.8190 n2         1 OX3       0.097000
     10 O9           2.4860     0.0010     5.8340 os         1 OX3      -0.154000
     11 C10          1.8480     0.0020     7.0410 c2         1 OX3       0.362000
     12 O10          0.6390    -0.0000     7.2330 o          1 OX3      -0.341000
     13 C11          2.8680     0.0010     8.1410 c3         1 OX3      -0.113000
     14 C12          3.2530    -1.4360     8.4950 c3         1 OX3      -0.090000
     15 C13          4.2200    -1.4870     9.6750 c3         1 OX3      -0.098000
     16 C14          3.6700    -0.7400    10.8870 c3         1 OX3      -0.102000
     17 C15          3.2920     0.6960    10.5360 c3         1 OX3      -0.098000
     18 C16          2.3220     0.7510     9.3590 c3         1 OX3      -0.090000
     19 HO1         -0.8380     0.8880    -1.4520 ho         1 OX3       0.212000
     20 H2           1.9360    -0.0000    -0.9380 ha         1 OX3       0.123500
     21 H3           3.1760     0.0000     1.2140 ha         1 OX3       0.132000
     22 H5          -0.5370    -0.0000     3.3570 ha         1 OX3       0.132000
     23 H6          -1.7810    -0.0010     1.2070 ha         1 OX3       0.123500
     24 H7           1.5660    -0.8460     3.2890 DU         1 OX3       0.355000
     25 H11          3.7550     0.5160     7.7930 hc         1 OX3       0.087000
     26 H121         3.7230    -1.8960     7.6340 hc         1 OX3       0.062000
     27 H122         2.3560    -1.9870     8.7510 hc         1 OX3       0.062000
     28 H131         4.3900    -2.5220     9.9470 hc         1 OX3       0.052750
     29 H132         5.1600    -1.0360     9.3800 hc         1 OX3       0.052750
     30 H141         4.4240    -0.7260    11.6640 hc         1 OX3       0.053000
     31 H142         2.7900    -1.2570    11.2500 hc         1 OX3       0.053000
     32 H151         4.1900     1.2430    10.2780 hc         1 OX3       0.052750
     33 H152         2.8260     1.1570    11.3980 hc         1 OX3       0.052750
     34 H161         1.3820     0.3030     9.6560 hc         1 OX3       0.062000
     35 H162         2.1560     1.7870     9.0890 hc         1 OX3       0.062000
@<TRIPOS>BOND
     1     1     2 1   
     2     1     3 1   
     3     1     7 1   
     4     2    19 1   
     5     3     4 1   
     6     3    20 1   
     7     4     5 1   
     8     4    21 1   
     9     5     6 1   
    10     5     8 1   
    11     5    24 1   
    12     6     7 1   
    13     6    22 1   
    14     7    23 1   
    15     8     9 1   
    16     8    24 1   
    17     9    10 1   
    18    10    11 1   
    19    11    12 1   
    20    11    13 1   
    21    13    14 1   
    22    13    18 1   
    23    13    25 1   
    24    14    15 1   
    25    14    26 1   
    26    14    27 1   
    27    15    16 1   
    28    15    28 1   
    29    15    29 1   
    30    16    17 1   
    31    16    30 1   
    32    16    31 1   
    33    17    18 1   
    34    17    32 1   
    35    17    33 1   
    36    18    34 1   
    37    18    35 1   
@<TRIPOS>SUBSTRUCTURE
     1 OX3         1 TEMP              0 ****  ****    0 ROOT
