@<TRIPOS>MOLECULE
OX4
   35    37     1     0     0
SMALL
bcc


@<TRIPOS>ATOM
      1 O1           0.0000     0.0000     0.0000 oh         1 OX4      -0.240000
      2 C1           1.3610     0.0000     0.0000 c2         1 OX4       0.095000
      3 C2           2.0610     0.0000     1.2060 c2         1 OX4       0.021000
      4 F2           1.3980    -0.0030     2.3710 f          1 OX4      -0.074000
      5 C3           3.4560     0.0020     1.2050 c2         1 OX4      -0.017000
      6 C4           4.1330     0.0050    -0.0040 c3         1 OX4      -0.120000
      7 C5           3.4520     0.0040    -1.2110 c2         1 OX4      -0.090000
      8 C6           2.0570     0.0020    -1.2090 c2         1 OX4      -0.133000
      9 C7           5.6060     0.0060    -0.0060 c2         1 OX4      -0.461000
     10 N8           6.2950     0.0050    -1.0990 n2         1 OX4       0.109000
     11 O9           7.6570     0.0060    -0.7720 os         1 OX4      -0.152000
     12 C10          8.3820     0.0060    -1.9290 c2         1 OX4       0.362000
     13 O10          7.9430     0.0080    -3.0710 o          1 OX4      -0.338000
     14 C11          9.8450     0.0070    -1.5970 c3         1 OX4      -0.113000
     15 C12         10.3430     1.4450    -1.4410 c3         1 OX4      -0.090000
     16 C13         11.8490     1.4970    -1.1940 c3         1 OX4      -0.097500
     17 C14         12.6220     0.7500    -2.2780 c3         1 OX4      -0.102000
     18 C15         12.1310    -0.6860    -2.4300 c3         1 OX4      -0.097500
     19 C16         10.6260    -0.7420    -2.6790 c3         1 OX4      -0.090000
     20 HO1         -0.3140    -0.8810    -0.1190 ho         1 OX4       0.214000
     21 H3           4.0040     0.0020     2.1400 ha         1 OX4       0.145000
     22 H5           3.9970     0.0060    -2.1470 ha         1 OX4       0.137000
     23 H6           1.5140     0.0020    -2.1460 ha         1 OX4       0.126000
     24 H7           4.9930     0.8510    -0.2940 DU         1 OX4       0.352000
     25 H11          9.9880    -0.5080    -0.6550 hc         1 OX4       0.088000
     26 H121         9.8330     1.9050    -0.6030 hc         1 OX4       0.062000
     27 H122        10.1150     1.9960    -2.3450 hc         1 OX4       0.062000
     28 H131        12.1680     2.5320    -1.1840 hc         1 OX4       0.053250
     29 H132        12.0640     1.0450    -0.2340 hc         1 OX4       0.053250
     30 H141        12.4960     1.2680    -3.2210 hc         1 OX4       0.053000
     31 H142        13.6730     0.7370    -2.0150 hc         1 OX4       0.053000
     32 H151        12.6430    -1.1470    -3.2650 hc         1 OX4       0.053250
     33 H152        12.3580    -1.2330    -1.5230 hc         1 OX4       0.053250
     34 H161        10.3090    -1.7780    -2.6880 hc         1 OX4       0.062000
     35 H162        10.4120    -0.2940    -3.6420 hc         1 OX4       0.062000
@<TRIPOS>BOND
     1     1     2 1   
     2     1    20 1   
     3     2     3 1   
     4     2     8 1   
     5     3     4 1   
     6     3     5 1   
     7     5     6 1   
     8     5    21 1   
     9     6     7 1   
    10     6     9 1   
    11     6    24 1   
    12     7     8 1   
    13     7    22 1   
    14     8    23 1   
    15     9    10 1   
    16     9    24 1   
    17    10    11 1   
    18    11    12 1   
    19    12    13 1   
    20    12    14 1   
    21    14    15 1   
    22    14    19 1   
    23    14    25 1   
    24    15    16 1   
    25    15    26 1   
    26    15    27 1   
    27    16    17 1   
    28    16    28 1   
    29    16    29 1   
    30    17    18 1   
    31    17    30 1   
    32    17    31 1   
    33    18    19 1   
    34    18    32 1   
    35    18    33 1   
    36    19    34 1   
    37    19    35 1   
@<TRIPOS>SUBSTRUCTURE
     1 OX4         1 TEMP              0 ****  ****    0 ROOT
