@<TRIPOS>MOLECULE
molecule
   34    34     1     0     0
SMALL
bcc


@<TRIPOS>ATOM
      1 O1           0.0000     0.0000     0.0000 oh         1 OX5      -0.521100
      2 C1           1.3610     0.0000     0.0000 ca         1 OX5       0.122100
      3 C2           2.0580     0.0000     1.2070 ca         1 OX5      -0.160500
      4 C3           3.4530    -0.0010     1.2080 ca         1 OX5      -0.081000
      5 C4           4.1330    -0.0010    -0.0010 ca         1 OX5      -0.159900
      6 C5           3.4530    -0.0010    -1.2080 ca         1 OX5      -0.081000
      7 C6           2.0580    -0.0010    -1.2090 ca         1 OX5      -0.160500
      8 C7           5.6040    -0.0020     0.0000 ce         1 OX5       0.428800
      9 N8           6.2940    -0.0040    -1.0940 n2         1 OX5      -0.398200
     10 O9           7.6550    -0.0050    -0.7650 os         1 OX5      -0.213600
     11 C10          8.3830    -0.0070    -1.9210 c          1 OX5       0.648100
     12 C8           9.8610    -0.0090    -1.5960 c3         1 OX5      -0.140400
     13 C9           9.8840    -2.2650    -0.4260 c3         1 OX5      -0.085100
     14 C11         10.2430    -2.1100    -2.8930 c3         1 OX5      -0.085100
     15 C12         10.5040    -1.4120    -1.5430 c3         1 OX5      -0.059000
     16 C13         12.0250    -1.3180    -1.3280 c3         1 OX5      -0.085100
     17 O2           7.9400    -0.0150    -3.0620 o          1 OX5      -0.488000
     18 HO1         -0.3140     0.8890    -0.0000 ho         1 OX5       0.423000
     19 H2           1.5160     0.0000     2.1450 ha         1 OX5       0.146500
     20 H3           4.0000    -0.0010     2.1430 ha         1 OX5       0.150000
     21 H7           6.1230    -0.0030     0.9510 h4         1 OX5       0.010800
     22 H81         10.3780     0.5770    -2.3460 hc         1 OX5       0.069200
     23 H82         10.0000     0.4670    -0.6320 hc         1 OX5       0.069200
     24 H91          8.8510    -2.4830    -0.6680 hc         1 OX5       0.039144
     25 H92          9.9280    -1.7210     0.5100 hc         1 OX5       0.039144
     26 H93         10.4360    -3.1920    -0.3310 hc         1 OX5       0.039144
     27 H111        10.8590    -2.9980    -2.9650 hc         1 OX5       0.039144
     28 H112         9.1980    -2.3880    -2.9590 hc         1 OX5       0.039144
     29 H113        10.4890    -1.4330    -3.7030 hc         1 OX5       0.039144
     30 H131        12.4480    -2.3150    -1.3060 hc         1 OX5       0.039144
     31 H132        12.2260    -0.8180    -0.3890 hc         1 OX5       0.039144
     32 H133        12.4700    -0.7550    -2.1400 hc         1 OX5       0.039144
     33 H5           4.0000    -0.0020    -2.1430 ha         1 OX5       0.150000
     34 H6           1.5160    -0.0010    -2.1470 ha         1 OX5       0.146500
@<TRIPOS>BOND
     1     1    18 1
     2     1     2 1
     3     2     3 ar
     4     2     7 ar
     5     3    19 1
     6     3     4 ar
     7     4    20 1
     8     4     5 ar
     9     5     8 1
    10     5     6 ar
    11     6    33 1
    12     6     7 ar
    13     7    34 1
    14     8    21 1
    15     8     9 2
    16     9    10 1
    17    10    11 1
    18    11    17 2
    19    11    12 1
    20    12    22 1
    21    12    23 1
    22    12    15 1
    23    13    15 1
    24    13    24 1
    25    13    25 1
    26    13    26 1
    27    14    15 1
    28    14    27 1
    29    14    28 1
    30    14    29 1
    31    15    16 1
    32    16    30 1
    33    16    31 1
    34    16    32 1
@<TRIPOS>SUBSTRUCTURE
     1 OX5         1 TEMP              0 ****  ****    0 ROOT
