@<TRIPOS>MOLECULE
OX5
   34    35     1     0     0
SMALL
bcc


@<TRIPOS>ATOM
      1 O1           0.0000     0.0000     0.0000 oh         1 OX5      -0.252000
      2 C1           1.3610     0.0000     0.0000 c2         1 OX5       0.128000
      3 C2           2.0580     0.0000     1.2070 c2         1 OX5      -0.159000
      4 C3           3.4530    -0.0010     1.2080 c2         1 OX5      -0.025500
      5 C4           4.1330    -0.0010    -0.0010 c3         1 OX5      -0.145000
      6 C5           3.4530    -0.0010    -1.2080 c2         1 OX5      -0.025500
      7 C6           2.0580    -0.0010    -1.2090 c2         1 OX5      -0.159000
      8 C7           5.6040    -0.0020     0.0000 c2         1 OX5      -0.462000
      9 N8           6.2940    -0.0040    -1.0940 n2         1 OX5       0.096000
     10 O9           7.6550    -0.0050    -0.7650 os         1 OX5      -0.153000
     11 C10          8.3830    -0.0070    -1.9210 c2         1 OX5       0.361000
     12 C8           9.8610    -0.0090    -1.5960 c3         1 OX5      -0.123000
     13 C9           9.8840    -2.2650    -0.4260 c3         1 OX5      -0.116333
     14 C11         10.2430    -2.1100    -2.8930 c3         1 OX5      -0.116333
     15 C12         10.5040    -1.4120    -1.5430 c3         1 OX5      -0.056000
     16 C13         12.0250    -1.3180    -1.3280 c3         1 OX5      -0.116333
     17 O2           7.9400    -0.0150    -3.0620 o          1 OX5      -0.342000
     18 HO1         -0.3140     0.8890    -0.0000 ho         1 OX5       0.209000
     19 H2           1.5160     0.0000     2.1450 ha         1 OX5       0.123500
     20 H3           4.0000    -0.0010     2.1430 ha         1 OX5       0.132000
     21 H7           4.9930     0.8450    -0.2860 DU         1 OX5       0.353000
     22 H81         10.3780     0.5770    -2.3460 hc         1 OX5       0.077500
     23 H82         10.0000     0.4670    -0.6320 hc         1 OX5       0.077500
     24 H91          9.9320    -1.7230     0.5110 hc         1 OX5       0.048556
     25 H92          8.8500    -2.4790    -0.6660 hc         1 OX5       0.048556
     26 H93         10.4330    -3.1940    -0.3340 hc         1 OX5       0.048556
     27 H111        10.8590    -2.9980    -2.9650 hc         1 OX5       0.048556
     28 H112         9.1980    -2.3890    -2.9590 hc         1 OX5       0.048556
     29 H113        10.4880    -1.4330    -3.7030 hc         1 OX5       0.048556
     30 H131        12.4480    -2.3150    -1.3050 hc         1 OX5       0.048556
     31 H132        12.4700    -0.7550    -2.1400 hc         1 OX5       0.048556
     32 H133        12.2260    -0.8180    -0.3890 hc         1 OX5       0.048556
     33 H5           4.0000    -0.0020    -2.1430 ha         1 OX5       0.132000
     34 H6           1.5160    -0.0010    -2.1470 ha         1 OX5       0.123500
@<TRIPOS>BOND
     1     1     2 1   
     2     1    18 1   
     3     2     3 1   
     4     2     7 1   
     5     3     4 1   
     6     3    19 1   
     7     4     5 1   
     8     4    20 1   
     9     5     6 1   
    10     5     8 1   
    11     5    21 1   
    12     6     7 1   
    13     6    33 1   
    14     7    34 1   
    15     8     9 1   
    16     8    21 1   
    17     9    10 1   
    18    10    11 1   
    19    11    12 1   
    20    11    17 1   
    21    12    15 1   
    22    12    22 1   
    23    12    23 1   
    24    13    15 1   
    25    13    24 1   
    26    13    25 1   
    27    13    26 1   
    28    14    15 1   
    29    14    27 1   
    30    14    28 1   
    31    14    29 1   
    32    15    16 1   
    33    16    30 1   
    34    16    31 1   
    35    16    32 1   
@<TRIPOS>SUBSTRUCTURE
     1 OX5         1 TEMP              0 ****  ****    0 ROOT
