@<TRIPOS>MOLECULE
OX6
   37    36     1     0     0
SMALL
bcc


@<TRIPOS>ATOM
      1 C1         -1.2590   -0.1310    1.6860 c1        1 OX6      0.523800
      2 O12         4.6370   -0.5640    3.4460 os        1 OX6     -0.404400
      3 O9          4.3680   -2.4440    4.6520 os        1 OX6     -0.414400
      4 C10         5.7930   -2.3710    5.0950 c3        1 OX6      0.199800
      5 C14         5.8610   -3.5980    5.9970 c3        1 OX6     -0.127100
      6 C13         6.7010   -2.5110    3.8930 c3        1 OX6     -0.127100
      7 C11         6.0200   -1.0940    5.8720 c3        1 OX6     -0.127100
      8 N7          2.5180   -1.7020    3.5390 nh        1 OX6     -0.474100
      9 C6          3.2780    1.0670    0.3250 c3        1 OX6     -0.116700
     10 C15         4.0830    0.0650    1.1370 c3        1 OX6     -0.088700
     11 C17         5.4820   -0.0510    0.5590 c3        1 OX6     -0.106100
     12 C16         4.1570    0.5070    2.5940 c3        1 OX6      0.118400
     13 C3          1.7760    0.9170    0.4120 c2        1 OX6      0.634600
     14 O2          1.2120    1.6200   -0.6200 oh        1 OX6     -0.579600
     15 N5         -0.1060    0.0810    1.4650 n1        1 OX6     -0.745100
     16 N4          1.1950    0.2150    1.3680 ne        1 OX6     -0.363400
     17 H1          0.2410    1.5770   -0.6070 ho        1 OX6      0.455000
     18 H141        5.6060   -4.5210    5.4250 hc        1 OX6      0.072589
     19 H142        6.9030   -3.6860    6.3910 hc        1 OX6      0.072589
     20 H143        5.1520   -3.4950    6.8530 hc        1 OX6      0.072589
     21 H131        7.7520   -2.6550    4.2500 hc        1 OX6      0.072589
     22 H132        6.6680   -1.5970    3.2520 hc        1 OX6      0.072589
     23 H133        6.4090   -3.3990    3.2820 hc        1 OX6      0.072589
     24 H111        7.0010   -1.1650    6.4060 hc        1 OX6      0.072589
     25 H112        5.2140   -0.9470    6.6310 hc        1 OX6      0.072589
     26 H113        6.0510   -0.2070    5.1940 hc        1 OX6      0.072589
     27 HN7         2.0500   -1.0670    2.9210 hn        1 OX6      0.350200
     28 H6          2.0140   -2.4770    3.9210 hn        1 OX6      0.350200
     29 H15         3.5290    2.1180    0.6350 hc        1 OX6      0.104200
     30 H171        3.5970   -0.9490    1.0760 hc        1 OX6      0.068700
     31 H172        5.4430   -0.5060   -0.4600 hc        1 OX6      0.058033
     32 H173        5.9640    0.9530    0.4810 hc        1 OX6      0.058033
     33 H161        6.1120   -0.6990    1.2160 hc        1 OX6      0.058033
     34 H162        4.9710    1.2750    2.7440 h1        1 OX6      0.100700
     35 H163        3.1870    0.9050    2.9860 h1        1 OX6      0.100700
     36 H72         3.5530    0.9670   -0.7640 hc        1 OX6      0.104200
     37 C8          3.8090   -1.5440    3.8460 c2        1 OX6      0.734900
@<TRIPOS>BOND
     1    1   15 3
     2    2   12 1
     3    2   37 1
     4    3    4 1
     5    3   37 1
     6    4    5 1
     7    4    6 1
     8    4    7 1
     9    5   18 1
    10    5   19 1
    11    5   20 1
    12    6   21 1
    13    6   22 1
    14    6   23 1
    15    7   24 1
    16    7   25 1
    17    7   26 1
    18    8   27 1
    19    8   28 1
    20    8   37 2
    21    9   10 1
    22    9   13 1
    23    9   29 1
    24    9   36 1
    25   10   11 1
    26   10   12 1
    27   10   30 1
    28   11   31 1
    29   11   32 1
    30   11   33 1
    31   12   34 1
    32   12   35 1
    33   13   14 1
    34   13   16 2
    35   14   17 1
    36   15   16 1
@<TRIPOS>SUBSTRUCTURE
     1 OX6         1 TEMP              0 ****  ****    0 ROOT
