@<TRIPOS>MOLECULE
OX7
   37    34     1     0     0
SMALL
bcc


@<TRIPOS>ATOM
      1 C1         -2.2600    0.7330    0.3360 c1        1 OX7      0.632800
      2 O12         5.1910    0.4870    2.4280 o         1 OX7     -0.600000
      3 O9          5.4220    2.2160    3.6800 os        1 OX7     -0.484900
      4 C10         6.2730    3.1370    4.4340 c3        1 OX7      0.165800
      5 C14         7.2290    3.8370    3.4850 c3        1 OX7     -0.120100
      6 C13         5.2860    4.1250    5.0410 c3        1 OX7     -0.120100
      7 C11         7.0130    2.3730    5.5180 c3        1 OX7     -0.120100
      8 N7          2.5530    1.4070    2.6110 nh        1 OX7     -0.291100
      9 C6          2.3260    0.3590    1.8770 ce        1 OX7      0.384900
     10 C15         3.6680   -3.0350    2.1960 c2        1 OX7     -0.159200
     11 C17         4.2210   -2.5560    0.9130 c3        1 OX7     -0.091900
     12 C16         3.8810   -2.4400    3.3690 c2        1 OX7     -0.261000
     13 C3          1.0500    0.0930    1.1480 ce        1 OX7      0.450300
     14 O2          1.2340   -1.0070    0.3460 oh        1 OX7     -0.571600
     15 N5         -1.1380    0.7130    0.7630 n1        1 OX7     -0.768100
     16 N4          0.0100    0.8810    1.3480 nf        1 OX7     -0.178400
     17 H1          0.4110   -1.2460   -0.1150 ho        1 OX7      0.471000
     18 H141        6.6690    4.2940    2.6350 hc        1 OX7      0.060478
     19 H142        7.9860    3.1240    3.0770 hc        1 OX7      0.060478
     20 H143        7.7690    4.6460    4.0350 hc        1 OX7      0.060478
     21 H131        5.8500    4.8750    5.6480 hc        1 OX7      0.060478
     22 H132        4.7250    4.6570    4.2370 hc        1 OX7      0.060478
     23 H133        4.5610    3.5940    5.7020 hc        1 OX7      0.060478
     24 H111        7.5430    3.0970    6.1830 hc        1 OX7      0.060478
     25 H112        6.2950    1.7790    6.1340 hc        1 OX7      0.060478
     26 H113        7.7690    1.6800    5.0770 hc        1 OX7      0.060478
     27 HN7         7.1200    1.0710    3.0310 h5        1 OX7      0.089200
     28 H6          1.8790    2.1380    2.7590 hn        1 OX7      0.351200
     29 H15         3.1270   -0.4320    1.7600 h4        1 OX7      0.139800
     30 H171        3.0540   -3.9500    2.1270 ha        1 OX7      0.134000
     31 H172        3.3880   -2.2830    0.2150 hc        1 OX7      0.051700
     32 H173        4.8240   -3.3660    0.4310 hc        1 OX7      0.051700
     33 H161        4.8840   -1.6640    1.0520 hc        1 OX7      0.051700
     34 H162        3.4720   -2.8320    4.3090 ha        1 OX7      0.115000
     35 H163        4.5140   -1.5470    3.4700 ha        1 OX7      0.115000
     36 H72         3.4670    1.5250    3.0520 hn        1 OX7      0.351200
     37 C8          6.0240    1.1950    3.0120 c         1 OX7      0.666900
@<TRIPOS>BOND
     1    1   15 3   
     2    2   37 2   
     3    3    4 1   
     4    3   37 1   
     5    4    5 1   
     6    4    6 1   
     7    4    7 1   
     8    5   18 1   
     9    5   19 1   
    10    5   20 1   
    11    6   21 1   
    12    6   22 1   
    13    6   23 1   
    14    7   24 1   
    15    7   25 1   
    16    7   26 1   
    17    8    9 2   
    18    8   28 1   
    19    8   36 1   
    20    9   13 1   
    21    9   29 1   
    22   10   11 1   
    23   10   12 2   
    24   10   30 1   
    25   11   31 1   
    26   11   32 1   
    27   11   33 1   
    28   12   34 1   
    29   12   35 1   
    30   13   14 1   
    31   13   16 2   
    32   14   17 1   
    33   15   16 1   
    34   27   37 1   
@<TRIPOS>SUBSTRUCTURE
     1 OX7         1 TEMP              0 ****  ****    0 ROOT
