@<TRIPOS>MOLECULE
OXC
   15    15     1     0     0
SMALL
bcc


@<TRIPOS>ATOM
      1 N1           0.0000     0.0000     0.0000 ns         1 OXC      -0.162500
      2 C2           1.3400     0.0000     0.0000 c          1 OXC       0.595500
      3 O2           1.9340     0.0020    -1.0610 o          1 OXC      -0.767500
      4 N3           2.0440     0.0000     1.1490 ns         1 OXC      -0.141400
      5 C4           1.3020    -0.0010     2.4200 c3         1 OXC      -0.071900
      6 N5          -0.1670    -0.0010     2.3400 ns         1 OXC      -0.141400
      7 C6          -0.7380    -0.0000     1.1170 c          1 OXC       0.595500
      8 O6          -1.9500    -0.0010     1.0290 o          1 OXC      -0.767500
      9 CG           1.7240     1.2150     3.2040 c          1 OXC       0.945600
     10 OD1          3.0250     1.4540     3.4260 o          1 OXC      -0.867800
     11 OD2          0.8880     1.9760     3.6330 o          1 OXC      -0.867800
     12 HN1         -0.4740     0.0000    -0.8810 hn         1 OXC       0.193500
     13 HN3          3.0450     0.0000     1.1390 hn         1 OXC       0.219500
     14 H4           1.6010    -0.8820     2.9750 h2         1 OXC       0.018700
     15 HN5         -0.7270    -0.0020     3.1690 hn         1 OXC       0.219500
@<TRIPOS>BOND
     1     1     2 1   
     2     1     7 1   
     3     1    12 1   
     4     2     3 2   
     5     2     4 1   
     6     4     5 1   
     7     4    13 1   
     8     5     6 1   
     9     5     9 1   
    10     5    14 1   
    11     6     7 1   
    12     6    15 1   
    13     7     8 2   
    14     9    10 1   
    15     9    11 1   
@<TRIPOS>SUBSTRUCTURE
     1 OXC         1 TEMP              0 ****  ****    0 ROOT
