@<TRIPOS>MOLECULE
molecule
    6     5     1     0     0
SMALL
bcc


@<TRIPOS>ATOM
      1 C1          -0.1390     0.0000     0.7340 c          1 OXD       0.807600
      2 C2           0.1390     0.0000    -0.7340 c          1 OXD       0.807600
      3 O3          -1.2830     0.0000     1.1340 o          1 OXD      -0.903800
      4 O4           1.2830     0.0000    -1.1340 o          1 OXD      -0.903800
      5 O5           0.8800     0.0000     1.6110 o          1 OXD      -0.903800
      6 O6          -0.8800     0.0000    -1.6110 o          1 OXD      -0.903800
@<TRIPOS>BOND
     1     1     2 1
     2     1     3 1
     3     1     5 1
     4     2     4 1
     5     2     6 1
@<TRIPOS>SUBSTRUCTURE
     1 OXD         1 TEMP              0 ****  ****    0 ROOT
