@<TRIPOS>MOLECULE
OXD
    6     5     1     0     0
SMALL
bcc


@<TRIPOS>ATOM
      1 C1         -0.1660    0.0110    0.7500 c         1 OXD      0.831600
      2 C2          0.1660   -0.0110   -0.7500 c         1 OXD      0.831600
      3 O3         -1.0550   -0.7750    1.2180 o         1 OXD     -0.916300
      4 O4          1.0780   -0.7860   -1.1900 o         1 OXD     -0.916300
      5 O5          0.4460    0.8140    1.5280 o         1 OXD     -0.916300
      6 O6         -0.4690    0.7470   -1.5560 o         1 OXD     -0.916300
@<TRIPOS>BOND
     1    1    2 1   
     2    1    3 1   
     3    1    5 1   
     4    2    4 1   
     5    2    6 1   
@<TRIPOS>SUBSTRUCTURE
     1 OXD         1 TEMP              0 ****  ****    0 ROOT
