@<TRIPOS>MOLECULE
molecule
   18    18     1     0     0
SMALL
bcc


@<TRIPOS>ATOM
      1 C1           0.0000     0.0000     0.0000 ca         1 OXE      -0.083300
      2 C2           1.3820     0.0000     0.0000 ca         1 OXE      -0.083300
      3 C3           2.0730     0.0000     1.1970 ca         1 OXE      -0.124000
      4 C4           1.3820    -0.0090     2.3940 ca         1 OXE      -0.130000
      5 C5           0.0000    -0.0130     2.3940 ca         1 OXE      -0.130000
      6 C6          -0.6910    -0.0090     1.1970 ca         1 OXE      -0.124000
      7 C1'         -0.7530     0.0040    -1.3050 c3         1 OXE      -0.045800
      8 C2'          2.1350     0.0090    -1.3050 c3         1 OXE      -0.045800
      9 H3           3.1560     0.0020     1.1970 ha         1 OXE       0.129000
     10 H4           1.9240    -0.0110     3.3320 ha         1 OXE       0.128000
     11 H5          -0.5420    -0.0200     3.3320 ha         1 OXE       0.128000
     12 H6          -1.7740    -0.0110     1.1970 ha         1 OXE       0.129000
     13 H1'1        -0.4910    -0.8780    -1.8760 hc         1 OXE       0.042033
     14 H1'2        -0.4910     0.8910    -1.8700 hc         1 OXE       0.042033
     15 H1'3        -1.8180     0.0030    -1.1070 hc         1 OXE       0.042033
     16 H2'1         1.8730    -0.8720    -1.8790 hc         1 OXE       0.042033
     17 H2'2         3.2000     0.0070    -1.1070 hc         1 OXE       0.042033
     18 H2'3         1.8740     0.8970    -1.8670 hc         1 OXE       0.042033
@<TRIPOS>BOND
     1     1     2 ar
     2     1     6 ar
     3     1     7 1
     4     2     3 ar
     5     2     8 1
     6     3     4 ar
     7     3     9 1
     8     4     5 ar
     9     4    10 1
    10     5     6 ar
    11     5    11 1
    12     6    12 1
    13     7    13 1
    14     7    14 1
    15     7    15 1
    16     8    16 1
    17     8    17 1
    18     8    18 1
@<TRIPOS>SUBSTRUCTURE
     1 OXE         1 TEMP              0 ****  ****    0 ROOT
