@<TRIPOS>MOLECULE
OXE
   18    18     1     0     0
SMALL
bcc


@<TRIPOS>ATOM
      1 C1         -0.0120   -0.0010   -0.0140 ca        1 OXE     -0.078300
      2 C2          1.3940    0.0020   -0.0140 ca        1 OXE     -0.078300
      3 C3          2.0830   -0.0030    1.2030 ca        1 OXE     -0.127000
      4 C4          1.3880   -0.0090    2.4110 ca        1 OXE     -0.132000
      5 C5         -0.0060   -0.0120    2.4110 ca        1 OXE     -0.132000
      6 C6         -0.7010   -0.0080    1.2040 ca        1 OXE     -0.127000
      7 C1'        -0.7590    0.0040   -1.2930 c3        1 OXE     -0.051800
      8 C2'         2.1410    0.0090   -1.2930 c3        1 OXE     -0.051800
      9 H3          3.1830   -0.0000    1.2060 ha        1 OXE      0.130000
     10 H4          1.9400   -0.0130    3.3620 ha        1 OXE      0.130000
     11 H5         -0.5580   -0.0180    3.3620 ha        1 OXE      0.130000
     12 H6         -1.8010   -0.0100    1.2060 ha        1 OXE      0.130000
     13 H1'1       -0.4970    0.9120   -1.8920 hc        1 OXE      0.043367
     14 H1'2       -1.8630    0.0010   -1.1210 hc        1 OXE      0.043367
     15 H1'3       -0.4940   -0.8980   -1.9000 hc        1 OXE      0.043367
     16 H2'1        1.8750    0.9170   -1.8920 hc        1 OXE      0.043367
     17 H2'2        3.2450    0.0100   -1.1210 hc        1 OXE      0.043367
     18 H2'3        1.8780   -0.8940   -1.9010 hc        1 OXE      0.043367
@<TRIPOS>BOND
     1    1    2 ar  
     2    1    6 ar  
     3    1    7 1   
     4    2    3 ar  
     5    2    8 1   
     6    3    4 ar  
     7    3    9 1   
     8    4    5 ar  
     9    4   10 1   
    10    5    6 ar  
    11    5   11 1   
    12    6   12 1   
    13    7   13 1   
    14    7   14 1   
    15    7   15 1   
    16    8   16 1   
    17    8   17 1   
    18    8   18 1   
@<TRIPOS>SUBSTRUCTURE
     1 OXE         1 TEMP              0 ****  ****    0 ROOT
