@<TRIPOS>MOLECULE
OXG
   16    17     1     0     0
SMALL
bcc


@<TRIPOS>ATOM
      1 N9           0.0000     0.0000     0.0000 nc         1 OXG      -0.385100
      2 C8           1.3430     0.0000     0.0000 c          1 OXG       0.706900
      3 N7           1.8250     0.0000     1.2570 nc         1 OXG      -0.361100
      4 C5           0.8340     0.0000     2.0900 cd         1 OXG       0.194000
      5 C6           0.6690    -0.0010     3.5630 c          1 OXG       0.546200
      6 O6           1.6270    -0.0010     4.3090 o          1 OXG      -0.491500
      7 N1          -0.5980     0.0040     4.0410 ns         1 OXG      -0.033400
      8 C2          -1.6680    -0.0000     3.2030 cc         1 OXG       0.068800
      9 N2          -2.9070    -0.0010     3.7580 nz         1 OXG       0.193400
     10 N3          -1.5820    -0.0000     1.8810 nd         1 OXG      -0.429000
     11 C4          -0.4140     0.0000     1.2590 cd         1 OXG       0.411000
     12 O8           2.0330    -0.0000    -1.0020 o          1 OXG      -0.309100
     13 H1          -0.7490     0.0110     5.0300 hn         1 OXG       0.198500
     14 H21         -3.0210     0.8200     4.3200 hn         1 OXG       0.229800
     15 H22         -3.0150    -0.8150     4.3310 hn         1 OXG       0.229800
     16 H23         -3.5970    -0.0090     3.0340 hn         1 OXG       0.229800
@<TRIPOS>BOND
     1     1     2 1   
     2     1    11 2   
     3     2     3 1   
     4     2    12 2   
     5     3     4 2   
     6     4     5 1   
     7     4    11 1   
     8     5     6 2   
     9     5     7 1   
    10     7     8 1   
    11     7    13 1   
    12     8     9 1   
    13     8    10 2   
    14     9    14 1   
    15     9    15 1   
    16     9    16 1   
    17    10    11 1   
@<TRIPOS>SUBSTRUCTURE
     1 OXG         1 TEMP              0 ****  ****    0 ROOT
