@<TRIPOS>MOLECULE
OXI
   29    31     1     0     0
SMALL
bcc


@<TRIPOS>ATOM
      1 C1         -0.0440    0.0850   -0.1180 c         1 OXI      0.930800
      2 O1          1.1870   -0.1790   -0.0100 o         1 OXI     -0.815800
      3 C3         -0.8690    0.0090    1.1700 cc        1 OXI     -0.257400
      4 C2         -0.3800    0.6550    2.2570 cd        1 OXI      0.056000
      5 N1         -1.0470    0.7590    3.4830 na        1 OXI     -0.528800
      6 C4         -2.1310   -0.7170    1.2490 c         1 OXI      0.599900
      7 O4         -2.6060   -1.4380    0.3580 o         1 OXI     -0.556100
      8 C10        -2.8520   -0.5780    2.5450 ca        1 OXI     -0.227600
      9 C9         -2.2750    0.1250    3.6420 ca        1 OXI      0.209600
     10 C8         -2.9750    0.2000    4.8930 ca        1 OXI     -0.203000
     11 C5         -4.1240   -1.1830    2.6460 ca        1 OXI     -0.021000
     12 C7         -4.2050   -0.4010    4.9500 ca        1 OXI      0.098100
     13 C6         -4.7810   -1.0810    3.8470 ca        1 OXI     -0.026900
     14 O6         -6.0340   -1.5840    4.2180 os        1 OXI     -0.338900
     15 O7         -5.0780   -0.4640    6.0350 os        1 OXI     -0.349900
     16 C11        -6.2380   -1.2040    5.5920 c3        1 OXI      0.324200
     17 C12        -0.3600    1.3680    4.5980 c3        1 OXI      0.218800
     18 C13         0.2890    0.3970    5.5750 c3        1 OXI     -0.123100
     19 O2         -0.6170    0.4630   -1.1700 o         1 OXI     -0.815800
     20 H2          0.6070    1.1550    2.2090 h4        1 OXI      0.167000
     21 H8         -2.5560    0.7080    5.7690 ha        1 OXI      0.146000
     22 H5         -4.5410   -1.7140    1.7760 ha        1 OXI      0.176000
     23 H111       -6.3260   -2.1300    6.2130 h2        1 OXI      0.056200
     24 H112       -7.1300   -0.5330    5.6530 h2        1 OXI      0.056200
     25 H121       -1.0890    2.0230    5.1570 h1        1 OXI      0.048700
     26 H122        0.4420    2.0440    4.1820 h1        1 OXI      0.048700
     27 H131        0.7830    0.9800    6.3880 hc        1 OXI      0.043033
     28 H132        1.0590   -0.2280    5.0620 hc        1 OXI      0.043033
     29 H133       -0.4700   -0.2840    6.0300 hc        1 OXI      0.043033
@<TRIPOS>BOND
     1    1    2 1   
     2    1    3 1   
     3    1   19 1   
     4    3    4 2   
     5    3    6 1   
     6    4    5 1   
     7    4   20 1   
     8    5    9 1   
     9    5   17 1   
    10    6    7 2   
    11    6    8 1   
    12    8    9 ar  
    13    8   11 ar  
    14    9   10 ar  
    15   10   12 ar  
    16   10   21 1   
    17   11   13 ar  
    18   11   22 1   
    19   12   13 ar  
    20   12   15 1   
    21   13   14 1   
    22   14   16 1   
    23   15   16 1   
    24   16   23 1   
    25   16   24 1   
    26   17   18 1   
    27   17   25 1   
    28   17   26 1   
    29   18   27 1   
    30   18   28 1   
    31   18   29 1   
@<TRIPOS>SUBSTRUCTURE
     1 OXI         1 TEMP              0 ****  ****    0 ROOT
