@<TRIPOS>MOLECULE
molecule
    6     5     1     0     0
SMALL
bcc


@<TRIPOS>ATOM
      1 C1           0.7470     0.0000     0.0020 c          1 OXL       0.809600
      2 C2          -0.7470     0.0000     0.0000 c          1 OXL       0.809600
      3 O1           1.3850    -1.1050     0.0010 o          1 OXL      -0.905300
      4 O2          -1.3850    -1.1050    -0.0020 o          1 OXL      -0.905300
      5 O3           1.3850     1.1050    -0.0020 o          1 OXL      -0.905300
      6 O4          -1.3850     1.1050     0.0010 o          1 OXL      -0.905300
@<TRIPOS>BOND
     1     1     2 1
     2     1     3 1
     3     1     5 1
     4     2     4 1
     5     2     6 1
@<TRIPOS>SUBSTRUCTURE
     1 OXL         1 TEMP              0 ****  ****    0 ROOT
