@<TRIPOS>MOLECULE
OXL
    6     5     1     0     0
SMALL
bcc


@<TRIPOS>ATOM
      1 C1          0.7670    0.0260   -0.0350 c         1 OXL      0.831600
      2 C2         -0.7670   -0.0260    0.0350 c         1 OXL      0.831600
      3 O1          1.4660   -0.7200    0.7280 o         1 OXL     -0.916300
      4 O2         -1.4120   -0.8410   -0.7040 o         1 OXL     -0.916300
      5 O3          1.3420    0.8140   -0.8550 o         1 OXL     -0.916300
      6 O4         -1.3960    0.7460    0.8310 o         1 OXL     -0.916300
@<TRIPOS>BOND
     1    1    2 1   
     2    1    3 1   
     3    1    5 1   
     4    2    4 1   
     5    2    6 1   
@<TRIPOS>SUBSTRUCTURE
     1 OXL         1 TEMP              0 ****  ****    0 ROOT
