@<TRIPOS>MOLECULE
OXM
    8     7     1     0     0
SMALL
bcc


@<TRIPOS>ATOM
      1 C1         -0.0420   -0.0000    0.0360 c         1 OXM      0.527100
      2 N1          1.3360   -0.0000    0.0020 n         1 OXM     -0.696000
      3 O1         -0.6030   -0.0000    1.1530 o         1 OXM     -0.668100
      4 C2         -0.7890   -0.0000   -1.3370 c         1 OXM      0.874600
      5 O2         -0.0770   -0.0000   -2.3790 o         1 OXM     -0.805300
      6 O3         -2.0410   -0.0000   -1.3070 o         1 OXM     -0.805300
      7 HN1         1.7910    0.0000   -0.8750 hn        1 OXM      0.287500
      8 HN2         1.8740    0.0000    0.8280 hn        1 OXM      0.287500
@<TRIPOS>BOND
     1    1    2 1   
     2    1    3 2   
     3    1    4 1   
     4    2    7 1   
     5    2    8 1   
     6    4    5 1   
     7    4    6 1   
@<TRIPOS>SUBSTRUCTURE
     1 OXM         1 TEMP              0 ****  ****    0 ROOT
