@<TRIPOS>MOLECULE
molecule
  107   107     1     0     0
SMALL
bcc


@<TRIPOS>ATOM
      1 C5           0.0000     0.0000     0.0000 c3         1 OXN      -0.050400
      2 C1           1.5640     0.0000     0.0000 c3         1 OXN      -0.060000
      3 C3           2.0190     0.0000     1.4810 c3         1 OXN      -0.082767
      4 C4           2.1380     1.2790    -0.6400 c3         1 OXN      -0.082767
      5 C2           2.1870    -1.2260    -0.6770 c3         1 OXN      -0.082767
      6 C6          -0.8450    -0.0890    -1.3230 c3         1 OXN      -0.015700
      7 C9          -0.5080    -1.3330    -2.1700 ca         1 OXN      -0.095300
      8 C8          -2.3360    -0.2340    -0.8990 c3         1 OXN      -0.084600
      9 C7          -0.7640     1.2390    -2.1050 c3         1 OXN      -0.084600
     10 C10         -0.6360    -2.5660    -1.5870 ca         1 OXN      -0.097500
     11 C11         -0.3310    -3.6900    -2.3540 ca         1 OXN      -0.175500
     12 C12          0.0910    -3.5410    -3.6750 ca         1 OXN       0.137100
     13 C13          0.2080    -2.2660    -4.2300 ca         1 OXN      -0.175500
     14 C14         -0.0980    -1.1420    -3.4640 ca         1 OXN      -0.097500
     15 O15          0.3910    -4.6390    -4.4230 os         1 OXN      -0.327900
     16 C16         -0.3150    -5.8410    -4.1210 c3         1 OXN       0.142400
     17 C17         -0.4700    -6.6560    -5.3910 c3         1 OXN       0.129400
     18 O18         -1.2170    -5.9020    -6.3370 os         1 OXN      -0.388600
     19 C19         -1.3940    -6.6180    -7.5510 c3         1 OXN       0.138400
     20 C20         -2.2140    -5.7770    -8.5080 c3         1 OXN       0.134400
     21 O21         -3.4870    -5.5200    -7.9270 os         1 OXN      -0.386600
     22 C22         -4.3020    -4.7320    -8.7840 c3         1 OXN       0.136400
     23 C23         -5.6490    -4.5130    -8.1220 c3         1 OXN       0.137400
     24 O24         -5.4530    -3.8590    -6.8760 os         1 OXN      -0.387600
     25 C25         -6.6860    -3.6280    -6.2090 c3         1 OXN       0.134400
     26 C26         -6.4120    -2.9510    -4.8800 c3         1 OXN       0.138400
     27 O27         -5.6030    -3.8070    -4.0820 os         1 OXN      -0.378600
     28 C28         -5.3140    -3.2210    -2.8210 c3         1 OXN       0.138400
     29 C29         -4.4720    -4.1870    -2.0080 c3         1 OXN       0.134400
     30 O30         -5.2060    -5.3880    -1.8080 os         1 OXN      -0.385600
     31 C31         -4.4630    -6.3320    -1.0500 c3         1 OXN       0.137400
     32 C32         -5.2960    -7.5870    -0.8710 c3         1 OXN       0.136400
     33 O33         -5.6200    -8.1160    -2.1510 os         1 OXN      -0.386600
     34 C34         -6.3840    -9.3090    -2.0430 c3         1 OXN       0.134400
     35 C35         -6.6980    -9.8250    -3.4340 c3         1 OXN       0.137400
     36 O36         -7.4580    -8.8450    -4.1300 os         1 OXN      -0.378600
     37 C37         -7.7630    -9.2660    -5.4530 c3         1 OXN       0.138400
     38 C38         -8.5720    -8.1830    -6.1420 c3         1 OXN       0.135400
     39 O39         -9.7840    -7.9820    -5.4250 os         1 OXN      -0.387600
     40 C40        -10.5740    -6.9600    -6.0150 c3         1 OXN       0.137400
     41 C41        -11.8490    -6.7910    -5.2090 c3         1 OXN       0.135400
     42 O42        -11.5090    -6.4510    -3.8710 os         1 OXN      -0.381600
     43 C43        -12.6680    -6.2590    -3.0720 c3         1 OXN       0.131400
     44 C44        -12.2430    -5.9010    -1.6610 c3         1 OXN       0.144400
     45 O45        -11.4760    -6.9700    -1.1210 oh         1 OXN      -0.585800
     46 H51         -0.3090    -0.8320     0.6210 hc         1 OXN       0.034200
     47 H52         -0.3090     0.9070     0.5040 hc         1 OXN       0.034200
     48 H31          3.1010     0.0220     1.5270 hc         1 OXN       0.033922
     49 H32          1.6550    -0.8950     1.9710 hc         1 OXN       0.033922
     50 H33          1.6180     0.8730     1.9820 hc         1 OXN       0.033922
     51 H41          2.1140     1.1850    -1.7190 hc         1 OXN       0.033922
     52 H42          3.1620     1.4180    -0.3130 hc         1 OXN       0.033922
     53 H43          1.5430     2.1320    -0.3380 hc         1 OXN       0.033922
     54 H21          2.0740    -1.1410    -1.7520 hc         1 OXN       0.033922
     55 H22          1.6880    -2.1230    -0.3310 hc         1 OXN       0.033922
     56 H23          3.2400    -1.2800    -0.4290 hc         1 OXN       0.033922
     57 H81         -2.9470    -0.3940    -1.7790 hc         1 OXN       0.035533
     58 H82         -2.6570     0.6700    -0.3960 hc         1 OXN       0.035533
     59 H83         -2.4400    -1.0780    -0.2280 hc         1 OXN       0.035533
     60 H71          0.2170     1.3340    -2.5550 hc         1 OXN       0.035533
     61 H72         -0.9330     2.0680    -1.4290 hc         1 OXN       0.035533
     62 H73         -1.5190     1.2470    -2.8820 hc         1 OXN       0.035533
     63 H10         -0.9650    -2.6650    -0.5600 ha         1 OXN       0.138000
     64 H11         -0.4210    -4.6800    -1.9230 ha         1 OXN       0.136500
     65 H13          0.5350    -2.1500    -5.2560 ha         1 OXN       0.136500
     66 H14         -0.0120    -0.1450    -3.8790 ha         1 OXN       0.138000
     67 H161        -1.2930    -5.5980    -3.7240 h1         1 OXN       0.047700
     68 H162         0.2420    -6.4140    -3.3880 h1         1 OXN       0.047700
     69 H171        -0.9920    -7.5790    -5.1680 h1         1 OXN       0.032700
     70 H172         0.5080    -6.8820    -5.7980 h1         1 OXN       0.032700
     71 H191        -1.9120    -7.5480    -7.3510 h1         1 OXN       0.029200
     72 H192        -0.4270    -6.8300    -7.9910 h1         1 OXN       0.029200
     73 H201        -1.7050    -4.8390    -8.6940 h1         1 OXN       0.029700
     74 H202        -2.3430    -6.3110    -9.4420 h1         1 OXN       0.029700
     75 H221        -4.4400    -5.2470    -9.7270 h1         1 OXN       0.027200
     76 H222        -3.8240    -3.7750    -8.9600 h1         1 OXN       0.027200
     77 H231        -6.2710    -3.8980    -8.7610 h1         1 OXN       0.026200
     78 H232        -6.1310    -5.4690    -7.9580 h1         1 OXN       0.026200
     79 H251        -7.1880    -4.5730    -6.0380 h1         1 OXN       0.030200
     80 H252        -7.3140    -2.9890    -6.8190 h1         1 OXN       0.030200
     81 H261        -7.3490    -2.7590    -4.3710 h1         1 OXN       0.028200
     82 H262        -5.8920    -2.0160    -5.0500 h1         1 OXN       0.028200
     83 H281        -6.2390    -3.0160    -2.2950 h1         1 OXN       0.027200
     84 H282        -4.7670    -2.2980    -2.9660 h1         1 OXN       0.027200
     85 H291        -4.2350    -3.7430    -1.0480 h1         1 OXN       0.030200
     86 H292        -3.5550    -4.4070    -2.5420 h1         1 OXN       0.030200
     87 H311        -3.5470    -6.5770    -1.5740 h1         1 OXN       0.024200
     88 H312        -4.2250    -5.9130    -0.0800 h1         1 OXN       0.024200
     89 H321        -4.7300    -8.3200    -0.3080 h1         1 OXN       0.027700
     90 H322        -6.2070    -7.3450    -0.3380 h1         1 OXN       0.027700
     91 H341        -7.3070    -9.1020    -1.5160 h1         1 OXN       0.030700
     92 H342        -5.8160   -10.0550    -1.5000 h1         1 OXN       0.030700
     93 H351        -7.2690   -10.7420    -3.3610 h1         1 OXN       0.026200
     94 H352        -5.7740   -10.0140    -3.9680 h1         1 OXN       0.026200
     95 H371        -6.8440    -9.4350    -6.0010 h1         1 OXN       0.027200
     96 H372        -8.3390   -10.1820    -5.4180 h1         1 OXN       0.027200
     97 H381        -8.0040    -7.2610    -6.1590 h1         1 OXN       0.030200
     98 H382        -8.7970    -8.4890    -7.1560 h1         1 OXN       0.030200
     99 H401       -10.8230    -7.2350    -7.0330 h1         1 OXN       0.026700
    100 H402       -10.0210    -6.0290    -6.0160 h1         1 OXN       0.026700
    101 H411       -12.4080    -7.7190    -5.2170 h1         1 OXN       0.026700
    102 H412       -12.4510    -6.0020    -5.6430 h1         1 OXN       0.026700
    103 H431       -13.2650    -5.4550    -3.4860 h1         1 OXN       0.025700
    104 H432       -13.2520    -7.1720    -3.0540 h1         1 OXN       0.025700
    105 H441       -13.1210    -5.7380    -1.0480 h1         1 OXN       0.027200
    106 H442       -11.6430    -4.9990    -1.6810 h1         1 OXN       0.027200
    107 H45        -11.5370    -6.9560    -0.1800 ho         1 OXN       0.393000
@<TRIPOS>BOND
     1     1     2 1
     2     1     6 1
     3     1    46 1
     4     1    47 1
     5     2     3 1
     6     2     4 1
     7     2     5 1
     8     3    48 1
     9     3    49 1
    10     3    50 1
    11     4    51 1
    12     4    52 1
    13     4    53 1
    14     5    54 1
    15     5    55 1
    16     5    56 1
    17     6     7 1
    18     6     8 1
    19     6     9 1
    20     7    10 ar
    21     7    14 ar
    22     8    57 1
    23     8    58 1
    24     8    59 1
    25     9    60 1
    26     9    61 1
    27     9    62 1
    28    10    11 ar
    29    10    63 1
    30    11    12 ar
    31    11    64 1
    32    12    13 ar
    33    12    15 1
    34    13    14 ar
    35    13    65 1
    36    14    66 1
    37    15    16 1
    38    16    17 1
    39    16    67 1
    40    16    68 1
    41    17    18 1
    42    17    69 1
    43    17    70 1
    44    18    19 1
    45    19    20 1
    46    19    71 1
    47    19    72 1
    48    20    21 1
    49    20    73 1
    50    20    74 1
    51    21    22 1
    52    22    23 1
    53    22    75 1
    54    22    76 1
    55    23    24 1
    56    23    77 1
    57    23    78 1
    58    24    25 1
    59    25    26 1
    60    25    79 1
    61    25    80 1
    62    26    27 1
    63    26    81 1
    64    26    82 1
    65    27    28 1
    66    28    29 1
    67    28    83 1
    68    28    84 1
    69    29    30 1
    70    29    85 1
    71    29    86 1
    72    30    31 1
    73    31    32 1
    74    31    87 1
    75    31    88 1
    76    32    33 1
    77    32    89 1
    78    32    90 1
    79    33    34 1
    80    34    35 1
    81    34    91 1
    82    34    92 1
    83    35    36 1
    84    35    93 1
    85    35    94 1
    86    36    37 1
    87    37    38 1
    88    37    95 1
    89    37    96 1
    90    38    39 1
    91    38    97 1
    92    38    98 1
    93    39    40 1
    94    40    41 1
    95    40    99 1
    96    40   100 1
    97    41    42 1
    98    41   101 1
    99    41   102 1
   100    42    43 1
   101    43    44 1
   102    43   103 1
   103    43   104 1
   104    44    45 1
   105    44   105 1
   106    44   106 1
   107    45   107 1
@<TRIPOS>SUBSTRUCTURE
     1 OXN         1 TEMP              0 ****  ****    0 ROOT
