@<TRIPOS>MOLECULE
OXN
  107   107     1     0     0
SMALL
bcc


@<TRIPOS>ATOM
      1 C5          0.6950    0.3160    0.0210 c3        1 OXN     -0.058400
      2 C1          1.8760   -0.5130    0.5350 c3        1 OXN     -0.048000
      3 C3          1.4050   -1.2320    1.8020 c3        1 OXN     -0.087433
      4 C4          3.0500    0.3780    0.9230 c3        1 OXN     -0.087433
      5 C2          2.3380   -1.5610   -0.4610 c3        1 OXN     -0.087433
      6 C6          0.6390    0.7890   -1.4400 c3        1 OXN      0.004300
      7 C9          0.4210   -0.3510   -2.4010 ca        1 OXN     -0.092300
      8 C8         -0.5780    1.7220   -1.5510 c3        1 OXN     -0.088100
      9 C7          1.8660    1.6190   -1.7890 c3        1 OXN     -0.088100
     10 C10        -0.6720   -1.2090   -2.2200 ca        1 OXN     -0.101000
     11 C11        -0.9360   -2.2520   -3.1050 ca        1 OXN     -0.180000
     12 C12        -0.0920   -2.4420   -4.2050 ca        1 OXN      0.118100
     13 C13         1.0060   -1.5890   -4.4120 ca        1 OXN     -0.180000
     14 C14         1.2500   -0.5570   -3.5130 ca        1 OXN     -0.101000
     15 O15        -0.2360   -3.4440   -5.1470 os        1 OXN     -0.335900
     16 C16        -1.4230   -4.2340   -5.0260 c3        1 OXN      0.120400
     17 C17        -1.3770   -5.2200   -6.1900 c3        1 OXN      0.124400
     18 O18        -2.7370   -5.5360   -6.4820 os        1 OXN     -0.433600
     19 C19        -2.8480   -6.6560   -7.3610 c3        1 OXN      0.126400
     20 C20        -4.3220   -6.7870   -7.7220 c3        1 OXN      0.117400
     21 O21        -4.9050   -7.6950   -6.7890 os        1 OXN     -0.425600
     22 C22        -6.3230   -7.6320   -6.7470 c3        1 OXN      0.130400
     23 C23        -6.8220   -6.4050   -5.9930 c3        1 OXN      0.078400
     24 O24        -6.9310   -5.3450   -6.9460 os        1 OXN     -0.435600
     25 C25        -7.1180   -4.0680   -6.3570 c3        1 OXN      0.128400
     26 C26        -5.8720   -3.5880   -5.6180 c3        1 OXN      0.081400
     27 O27        -6.1380   -3.7600   -4.2260 os        1 OXN     -0.428600
     28 C28        -4.9870   -3.6440   -3.4030 c3        1 OXN      0.127400
     29 C29        -4.2740   -4.9900   -3.3080 c3        1 OXN      0.074400
     30 O30        -3.1900   -4.7980   -2.3970 os        1 OXN     -0.437600
     31 C31        -2.6230   -6.0140   -1.9310 c3        1 OXN      0.128400
     32 C32        -3.5020   -6.6790   -0.8750 c3        1 OXN      0.096400
     33 O33        -4.3400   -7.6040   -1.5640 os        1 OXN     -0.430600
     34 C34        -5.2950   -8.2270   -0.7090 c3        1 OXN      0.124400
     35 C35        -6.2970   -8.9280   -1.6200 c3        1 OXN      0.127400
     36 O36        -7.3730   -8.0130   -1.8210 os        1 OXN     -0.427600
     37 C37        -8.1510   -8.3300   -2.9720 c3        1 OXN      0.128400
     38 C38        -9.1780   -7.2070   -3.0960 c3        1 OXN      0.123400
     39 O39        -9.7570   -7.3530   -4.3920 os        1 OXN     -0.433600
     40 C40       -10.6070   -6.2570   -4.7260 c3        1 OXN      0.127400
     41 C41       -11.3430   -6.6500   -6.0020 c3        1 OXN      0.128400
     42 O42       -12.6520   -7.0560   -5.6080 os        1 OXN     -0.437600
     43 C43       -13.4190   -7.5570   -6.7010 c3        1 OXN      0.086400
     44 C44       -14.7440   -8.0240   -6.1080 c3        1 OXN      0.132400
     45 O45       -14.5730   -9.1530   -5.2770 oh        1 OXN     -0.600800
     46 H51        -0.2410   -0.2790    0.2080 hc        1 OXN      0.038200
     47 H52         0.6300    1.2350    0.6670 hc        1 OXN      0.038200
     48 H31         2.2520   -1.7940    2.2620 hc        1 OXN      0.034144
     49 H32         0.5910   -1.9560    1.5590 hc        1 OXN      0.034144
     50 H33         1.0200   -0.4940    2.5450 hc        1 OXN      0.034144
     51 H41         3.4960    0.8720    0.0290 hc        1 OXN      0.034144
     52 H42         2.7190    1.1680    1.6390 hc        1 OXN      0.034144
     53 H43         3.8440   -0.2350    1.4150 hc        1 OXN      0.034144
     54 H21         1.4800   -2.2090   -0.7630 hc        1 OXN      0.034144
     55 H22         2.7530   -1.0790   -1.3790 hc        1 OXN      0.034144
     56 H23         3.1310   -2.2010   -0.0040 hc        1 OXN      0.034144
     57 H81        -0.7090    2.0530   -2.6090 hc        1 OXN      0.036700
     58 H82        -1.5060    1.1970   -1.2240 hc        1 OXN      0.036700
     59 H83        -0.4300    2.6230   -0.9090 hc        1 OXN      0.036700
     60 H71         2.0370    2.3890   -0.9980 hc        1 OXN      0.036700
     61 H72         2.7790    0.9830   -1.8690 hc        1 OXN      0.036700
     62 H73         1.7130    2.1440   -2.7640 hc        1 OXN      0.036700
     63 H10        -1.3500   -1.0640   -1.3640 ha        1 OXN      0.134000
     64 H11        -1.7990   -2.9130   -2.9240 ha        1 OXN      0.151500
     65 H13         1.6590   -1.7480   -5.2820 ha        1 OXN      0.151500
     66 H14         2.1150    0.0980   -3.6990 ha        1 OXN      0.134000
     67 H161       -2.3320   -3.5790   -5.0940 h1        1 OXN      0.056200
     68 H162       -1.4280   -4.7740   -4.0420 h1        1 OXN      0.056200
     69 H171       -0.8990   -4.7550   -7.0920 h1        1 OXN      0.044200
     70 H172       -0.8110   -6.1440   -5.9050 h1        1 OXN      0.044200
     71 H191       -2.4770   -7.5790   -6.8410 h1        1 OXN      0.042700
     72 H192       -2.2420   -6.4710   -8.2870 h1        1 OXN      0.042700
     73 H201       -4.4260   -7.2200   -8.7520 h1        1 OXN      0.054200
     74 H202       -4.8330   -5.7880   -7.6740 h1        1 OXN      0.054200
     75 H221       -6.6150   -8.5590   -6.1820 h1        1 OXN      0.057700
     76 H222       -6.7500   -7.6570   -7.7840 h1        1 OXN      0.057700
     77 H231       -6.1040   -6.1210   -5.1760 h1        1 OXN      0.057700
     78 H232       -7.8360   -6.6030   -5.5500 h1        1 OXN      0.057700
     79 H251       -8.0010   -4.0830   -5.6640 h1        1 OXN      0.057700
     80 H252       -7.3260   -3.3990   -7.2350 h1        1 OXN      0.057700
     81 H261       -5.6920   -2.4980   -5.8150 h1        1 OXN      0.050700
     82 H262       -4.9670   -4.1780   -5.9290 h1        1 OXN      0.050700
     83 H281       -4.2870   -2.8540   -3.7820 h1        1 OXN      0.055200
     84 H282       -5.3890   -3.3420   -2.3990 h1        1 OXN      0.055200
     85 H291       -4.9720   -5.7840   -2.9300 h1        1 OXN      0.062700
     86 H292       -3.8590   -5.3030   -4.3060 h1        1 OXN      0.062700
     87 H311       -1.6520   -5.6940   -1.4670 h1        1 OXN      0.062700
     88 H312       -2.4370   -6.7160   -2.7850 h1        1 OXN      0.062700
     89 H321       -2.8690   -7.2350   -0.1340 h1        1 OXN      0.039700
     90 H322       -4.1250   -5.9150   -0.3400 h1        1 OXN      0.039700
     91 H341       -4.7700   -8.9770   -0.0600 h1        1 OXN      0.043700
     92 H342       -5.8090   -7.4640   -0.0680 h1        1 OXN      0.043700
     93 H351       -5.8160   -9.2030   -2.5960 h1        1 OXN      0.046700
     94 H352       -6.6990   -9.8480   -1.1200 h1        1 OXN      0.046700
     95 H371       -7.5000   -8.3640   -3.8870 h1        1 OXN      0.040200
     96 H372       -8.6520   -9.3220   -2.8330 h1        1 OXN      0.040200
     97 H381       -9.9750   -7.3020   -2.3140 h1        1 OXN      0.046200
     98 H382       -8.6770   -6.2070   -3.0020 h1        1 OXN      0.046200
     99 H401       -9.9730   -5.3480   -4.9070 h1        1 OXN      0.046700
    100 H402      -11.3310   -6.0560   -3.8930 h1        1 OXN      0.046700
    101 H411      -11.4230   -5.7690   -6.6910 h1        1 OXN      0.045200
    102 H412      -10.8170   -7.4930   -6.5220 h1        1 OXN      0.045200
    103 H431      -12.8770   -8.4110   -7.1860 h1        1 OXN      0.039200
    104 H432      -13.5860   -6.7400   -7.4510 h1        1 OXN      0.039200
    105 H441      -15.4290   -8.3650   -6.9290 h1        1 OXN      0.052700
    106 H442      -15.2220   -7.1890   -5.5300 h1        1 OXN      0.052700
    107 H45       -13.9160   -8.9150   -4.6100 ho        1 OXN      0.414000
@<TRIPOS>BOND
     1    1    2 1   
     2    1    6 1   
     3    1   46 1   
     4    1   47 1   
     5    2    3 1   
     6    2    4 1   
     7    2    5 1   
     8    3   48 1   
     9    3   49 1   
    10    3   50 1   
    11    4   51 1   
    12    4   52 1   
    13    4   53 1   
    14    5   54 1   
    15    5   55 1   
    16    5   56 1   
    17    6    7 1   
    18    6    8 1   
    19    6    9 1   
    20    7   10 ar  
    21    7   14 ar  
    22    8   57 1   
    23    8   58 1   
    24    8   59 1   
    25    9   60 1   
    26    9   61 1   
    27    9   62 1   
    28   10   11 ar  
    29   10   63 1   
    30   11   12 ar  
    31   11   64 1   
    32   12   13 ar  
    33   12   15 1   
    34   13   14 ar  
    35   13   65 1   
    36   14   66 1   
    37   15   16 1   
    38   16   17 1   
    39   16   67 1   
    40   16   68 1   
    41   17   18 1   
    42   17   69 1   
    43   17   70 1   
    44   18   19 1   
    45   19   20 1   
    46   19   71 1   
    47   19   72 1   
    48   20   21 1   
    49   20   73 1   
    50   20   74 1   
    51   21   22 1   
    52   22   23 1   
    53   22   75 1   
    54   22   76 1   
    55   23   24 1   
    56   23   77 1   
    57   23   78 1   
    58   24   25 1   
    59   25   26 1   
    60   25   79 1   
    61   25   80 1   
    62   26   27 1   
    63   26   81 1   
    64   26   82 1   
    65   27   28 1   
    66   28   29 1   
    67   28   83 1   
    68   28   84 1   
    69   29   30 1   
    70   29   85 1   
    71   29   86 1   
    72   30   31 1   
    73   31   32 1   
    74   31   87 1   
    75   31   88 1   
    76   32   33 1   
    77   32   89 1   
    78   32   90 1   
    79   33   34 1   
    80   34   35 1   
    81   34   91 1   
    82   34   92 1   
    83   35   36 1   
    84   35   93 1   
    85   35   94 1   
    86   36   37 1   
    87   37   38 1   
    88   37   95 1   
    89   37   96 1   
    90   38   39 1   
    91   38   97 1   
    92   38   98 1   
    93   39   40 1   
    94   40   41 1   
    95   40   99 1   
    96   40  100 1   
    97   41   42 1   
    98   41  101 1   
    99   41  102 1   
   100   42   43 1   
   101   43   44 1   
   102   43  103 1   
   103   43  104 1   
   104   44   45 1   
   105   44  105 1   
   106   44  106 1   
   107   45  107 1   
@<TRIPOS>SUBSTRUCTURE
     1 OXN         1 TEMP              0 ****  ****    0 ROOT
