@<TRIPOS>MOLECULE
molecule
   13    12     1     0     0
SMALL
bcc


@<TRIPOS>ATOM
      1 C2           0.0000     0.0000     0.0000 c          1 OXP       0.569300
      2 C3           1.4630     0.0000     0.0000 ce         1 OXP      -0.169200
      3 C5           1.3800     0.0000     2.4620 c3         1 OXP       0.002100
      4 O3          -0.6080     0.0000     1.0510 o          1 OXP      -0.610100
      5 C1          -0.7470     0.0000    -1.2920 c          1 OXP       0.823600
      6 O1          -0.1410     0.0000    -2.3420 o          1 OXP      -0.771300
      7 O2          -2.0920     0.0000    -1.2920 o          1 OXP      -0.771300
      8 C4           2.1320     0.0000     1.1580 c2         1 OXP      -0.393200
      9 H3           0.8520    -0.8750     0.1850 ha         1 OXP       0.048000
     10 H51          2.0710     0.1760     3.2780 hc         1 OXP       0.037367
     11 H52          0.8950    -0.9590     2.6000 hc         1 OXP       0.037367
     12 H53          0.6310     0.7830     2.4470 hc         1 OXP       0.037367
     13 H4           1.6660     0.8750     1.5960 ha         1 OXP       0.159000
@<TRIPOS>BOND
     1     1     2 1
     2     1     4 2
     3     1     5 1
     4     2     8 2
     5     2     9 1
     6     3     8 1
     7     3    10 1
     8     3    11 1
     9     3    12 1
    10     5     6 1
    11     5     7 1
    12     8    13 1
@<TRIPOS>SUBSTRUCTURE
     1 OXP         1 TEMP              0 ****  ****    0 ROOT
