@<TRIPOS>MOLECULE
OXP
   13    12     1     0     0
SMALL
bcc


@<TRIPOS>ATOM
      1 C2         -0.0650    0.5540   -0.0800 c         1 OXP      0.455300
      2 C3          1.3850    0.3110    0.0950 ce        1 OXP     -0.212200
      3 C5          1.3460   -0.3300    2.5100 c3        1 OXP     -0.061900
      4 O3         -0.7270    1.2210    0.7260 o         1 OXP     -0.584100
      5 C1         -0.6370   -0.0560   -1.3750 c         1 OXP      0.858600
      6 O1         -0.3230    0.5230   -2.4500 o         1 OXP     -0.812300
      7 O2         -1.3420   -1.0920   -1.2710 o         1 OXP     -0.812300
      8 C4          1.9990   -0.0980    1.2080 c2        1 OXP     -0.171200
      9 H3          1.9490    0.4510   -0.8460 ha        1 OXP      0.139000
     10 H51         0.2520   -0.0980    2.4650 hc        1 OXP      0.037033
     11 H52         1.4740   -1.3970    2.8210 hc        1 OXP      0.037033
     12 H53         1.8120    0.3190    3.2940 hc        1 OXP      0.037033
     13 H4          3.0830   -0.3070    1.1930 ha        1 OXP      0.090000
@<TRIPOS>BOND
     1    1    2 1   
     2    1    4 2   
     3    1    5 1   
     4    2    8 2   
     5    2    9 1   
     6    3    8 1   
     7    3   10 1   
     8    3   11 1   
     9    3   12 1   
    10    5    6 1   
    11    5    7 1   
    12    8   13 1   
@<TRIPOS>SUBSTRUCTURE
     1 OXP         1 TEMP              0 ****  ****    0 ROOT
