@<TRIPOS>MOLECULE
OXQ
   10    10     1     0     0
SMALL
bcc


@<TRIPOS>ATOM
      1 O9          0.7610    0.9410    0.3290 o         1 OXQ     -0.788300
      2 C6          1.3490   -0.1340    0.0640 c         1 OXQ      0.849100
      3 O8          1.4170   -1.1650    0.7750 o         1 OXQ     -0.788300
      4 C2          2.0800   -0.1930   -1.2860 cc        1 OXQ      0.241500
      5 C1          3.5060    0.1950   -1.5460 cc        1 OXQ      0.435300
      6 O7          4.3450    0.6590   -0.5850 oh        1 OXQ     -0.560300
      7 N3          1.6180   -0.5870   -2.4700 nd        1 OXQ     -0.380300
      8 O4          2.6120   -0.4700   -3.3820 os        1 OXQ      0.061600
      9 N5          3.7500   -0.0070   -2.8610 nd        1 OXQ     -0.485300
     10 HO7         5.2070    0.8400   -0.9940 ho        1 OXQ      0.414000
@<TRIPOS>BOND
     1    1    2 1
     2    2    3 1
     3    2    4 1
     4    4    5 1
     5    4    7 2
     6    5    6 1
     7    5    9 2
     8    6   10 1
     9    7    8 1
    10    8    9 1
@<TRIPOS>SUBSTRUCTURE
     1 OXQ         1 TEMP              0 ****  ****    0 ROOT
