@<TRIPOS>MOLECULE
molecule
   50    50     1     0     0
SMALL
bcc


@<TRIPOS>ATOM
      1 O2           0.0000     0.0000     0.0000 o          1 OXR      -0.543100
      2 C4           1.2180     0.0000     0.0000 c          1 OXR       0.579300
      3 C3           1.8740     0.0000     1.3420 c3         1 OXR      -0.173400
      4 C2           3.3900     0.0030     1.3280 c3         1 OXR      -0.069400
      5 C1           4.1500     0.0180    -0.0070 c3         1 OXR      -0.030800
      6 C17          5.0250    -1.2370    -0.0570 c3         1 OXR      -0.082100
      7 C16          4.9970     1.3030    -0.0770 c3         1 OXR      -0.082100
      8 C5           1.9670     0.0140    -1.2530 ce         1 OXR      -0.196400
      9 C18          1.1190     0.0130    -2.4880 c3         1 OXR      -0.053900
     10 C6           3.3200     0.0260    -1.2810 cf         1 OXR       0.000800
     11 C7           4.1890     0.0340    -2.5020 cf         1 OXR      -0.148000
     12 C8           3.8370     0.2040    -3.7730 ce         1 OXR      -0.103000
     13 C9           4.8260     0.1780    -4.8860 ce         1 OXR      -0.089200
     14 C19          6.3100    -0.0670    -4.7220 c3         1 OXR      -0.044900
     15 C10          4.2900     0.3450    -6.1010 cf         1 OXR      -0.131000
     16 C11          5.0420     0.2970    -7.3340 cf         1 OXR      -0.131000
     17 C12          4.3180     0.3380    -8.4510 ce         1 OXR      -0.119000
     18 C13          4.9370     0.2880    -9.7790 ce         1 OXR      -0.067200
     19 C20          6.3880    -0.0890    -9.9470 c3         1 OXR      -0.051900
     20 C14          4.1710     0.5670   -10.8410 c2         1 OXR      -0.177200
     21 C15          4.7090     0.5660   -12.2710 c3         1 OXR       0.179600
     22 O1           5.5140     1.7040   -12.5750 oh         1 OXR      -0.604800
     23 H31          1.5400     0.8790     1.8810 hc         1 OXR       0.072700
     24 H32          1.5430    -0.8810     1.8790 hc         1 OXR       0.072700
     25 H21          3.7150    -0.8770     1.8700 hc         1 OXR       0.043700
     26 H22          3.7120     0.8730     1.8880 hc         1 OXR       0.043700
     27 H171         4.4410    -2.0710    -0.4280 hc         1 OXR       0.040033
     28 H172         5.3880    -1.4640     0.9380 hc         1 OXR       0.040033
     29 H173         5.8670    -1.0640    -0.7180 hc         1 OXR       0.040033
     30 H161         5.7940     1.1720    -0.7990 hc         1 OXR       0.040033
     31 H162         4.3700     2.1330    -0.3780 hc         1 OXR       0.040033
     32 H163         5.4240     1.5080     0.8970 hc         1 OXR       0.040033
     33 H181         0.0790    -0.1090    -2.2110 hc         1 OXR       0.052033
     34 H182         1.2450     0.9520    -3.0130 hc         1 OXR       0.052033
     35 H183         1.4200    -0.8050    -3.1320 hc         1 OXR       0.052033
     36 H7           5.2430    -0.1260    -2.3100 ha         1 OXR       0.126000
     37 H8           2.7930     0.3620    -4.0120 ha         1 OXR       0.138000
     38 H191         6.5860     0.0690    -3.6830 hc         1 OXR       0.045033
     39 H192         6.5460    -1.0780    -5.0290 hc         1 OXR       0.045033
     40 H193         6.8610     0.6350    -5.3360 hc         1 OXR       0.045033
     41 H10          3.2180     0.4830    -6.1750 ha         1 OXR       0.124000
     42 H11          6.1230     0.2250    -7.3570 ha         1 OXR       0.139000
     43 H12          3.2390     0.4020    -8.3790 ha         1 OXR       0.128000
     44 H201         6.5360    -0.5310   -10.9250 hc         1 OXR       0.046367
     45 H202         6.6660    -0.8050    -9.1820 hc         1 OXR       0.046367
     46 H203         7.0050     0.7970    -9.8530 hc         1 OXR       0.046367
     47 H14          3.1290     0.8180   -10.6840 ha         1 OXR       0.127000
     48 H151         3.8710     0.5420   -12.9570 h1         1 OXR       0.024700
     49 H152         5.3030    -0.3280   -12.4170 h1         1 OXR       0.024700
     50 HO1          5.4440     1.9020   -13.4940 ho         1 OXR       0.403000
@<TRIPOS>BOND
     1     1     2 2
     2     2     3 1
     3     2     8 1
     4     3     4 1
     5     3    23 1
     6     3    24 1
     7     4     5 1
     8     4    25 1
     9     4    26 1
    10     5     6 1
    11     5     7 1
    12     5    10 1
    13     6    27 1
    14     6    28 1
    15     6    29 1
    16     7    30 1
    17     7    31 1
    18     7    32 1
    19     8     9 1
    20     8    10 2
    21     9    33 1
    22     9    34 1
    23     9    35 1
    24    10    11 1
    25    11    12 2
    26    11    36 1
    27    12    13 1
    28    12    37 1
    29    13    14 1
    30    13    15 2
    31    14    38 1
    32    14    39 1
    33    14    40 1
    34    15    16 1
    35    15    41 1
    36    16    17 2
    37    16    42 1
    38    17    18 1
    39    17    43 1
    40    18    19 1
    41    18    20 2
    42    19    44 1
    43    19    45 1
    44    19    46 1
    45    20    21 1
    46    20    47 1
    47    21    22 1
    48    21    48 1
    49    21    49 1
    50    22    50 1
@<TRIPOS>SUBSTRUCTURE
     1 OXR         1 TEMP              0 ****  ****    0 ROOT
