@<TRIPOS>MOLECULE
OXR
   50    49     1     0     0
SMALL
bcc


@<TRIPOS>ATOM
      1 O2          0.8220   -1.7440   -1.5960 o         1 OXR     -0.533100
      2 C4          1.8830   -1.1880   -1.2880 c         1 OXR      0.571300
      3 C3          2.6660   -1.6260   -0.0830 c3        1 OXR     -0.180400
      4 C2          3.3430   -0.4580    0.5910 c3        1 OXR     -0.068400
      5 C1          4.2510    0.3280   -0.3580 c3        1 OXR     -0.019800
      6 C17         5.5300   -0.4600   -0.6230 c3        1 OXR     -0.087600
      7 C16         4.6250    1.6340    0.3390 c3        1 OXR     -0.087600
      8 C5          2.4630   -0.0830   -2.0830 ce        1 OXR     -0.181400
      9 C18         1.7760    0.2320   -3.3600 c3        1 OXR     -0.063900
     10 C6          3.5540    0.6030   -1.6690 cf        1 OXR     -0.020200
     11 C7          4.0930    1.7200   -2.4420 cf        1 OXR     -0.130000
     12 C8          4.6650    1.7250   -3.6520 ce        1 OXR     -0.110000
     13 C9          4.9220    0.6080   -4.5520 ce        1 OXR     -0.058300
     14 C19         5.3680   -0.6930   -3.9930 c3        1 OXR     -0.060900
     15 C10         4.7950    0.7700   -5.8560 c1        1 OXR     -0.058900
     16 C11         4.6660    0.9150   -7.1000 c1        1 OXR     -0.041900
     17 C12         4.5210    1.0960   -8.3930 ce        1 OXR     -0.108100
     18 C13         4.7480    0.0820   -9.4090 ce        1 OXR     -0.081200
     19 C20         5.1620   -1.2780   -8.9830 c3        1 OXR     -0.062900
     20 C14         4.5790    0.3880  -10.7110 c2        1 OXR     -0.155200
     21 C15         4.7920   -0.5990  -11.8000 c3        1 OXR      0.161600
     22 O1          4.5400    0.0570  -13.0350 oh        1 OXR     -0.598800
     23 H31         3.4260   -2.3800   -0.4220 hc        1 OXR      0.072200
     24 H32         1.9820   -2.1430    0.6420 hc        1 OXR      0.072200
     25 H21         3.9540   -0.8300    1.4560 hc        1 OXR      0.050700
     26 H22         2.5620    0.2340    1.0040 hc        1 OXR      0.050700
     27 H171        5.2970   -1.4500   -1.0830 hc        1 OXR      0.040200
     28 H172        6.0780   -0.6290    0.3350 hc        1 OXR      0.040200
     29 H173        6.1930    0.1080   -1.3200 hc        1 OXR      0.040200
     30 H161        3.7340    2.3000    0.4290 hc        1 OXR      0.040200
     31 H162        5.4210    2.1710   -0.2310 hc        1 OXR      0.040200
     32 H163        5.0130    1.4160    1.3630 hc        1 OXR      0.040200
     33 H181        1.5920    1.3320   -3.4460 hc        1 OXR      0.055367
     34 H182        2.4180   -0.0800   -4.2240 hc        1 OXR      0.055367
     35 H183        0.7960   -0.3020   -3.4320 hc        1 OXR      0.055367
     36 H7          3.9830    2.6910   -1.9180 ha        1 OXR      0.134000
     37 H8          4.9850    2.7040   -4.0660 ha        1 OXR      0.133000
     38 H191        4.6210   -1.0630   -3.2450 hc        1 OXR      0.051367
     39 H192        6.3510   -0.5660   -3.4740 hc        1 OXR      0.051367
     40 H193        5.4850   -1.4620   -4.7950 hc        1 OXR      0.051367
     41 H10         5.6040    4.9200   -4.4090 ha        1 OXR      0.001000
     42 H11         5.6840    4.7170   -5.0500 ha        1 OXR      0.001000
     43 H12         4.2010    2.0900   -8.7610 ha        1 OXR      0.142000
     44 H201        5.2510   -1.3550   -7.8720 hc        1 OXR      0.046033
     45 H202        6.1530   -1.5390   -9.4340 hc        1 OXR      0.046033
     46 H203        4.4140   -2.0350   -9.3300 hc        1 OXR      0.046033
     47 H14         4.2720    1.3950  -11.0390 ha        1 OXR      0.148000
     48 H151        5.8500   -0.9850  -11.7810 h1        1 OXR      0.033700
     49 H152        4.0920   -1.4730  -11.6810 h1        1 OXR      0.033700
     50 HO1         4.6730   -0.6020  -13.7260 ho        1 OXR      0.402000
@<TRIPOS>BOND
     1    1    2 2   
     2    2    3 1   
     3    2    8 1   
     4    3    4 1   
     5    3   23 1   
     6    3   24 1   
     7    4    5 1   
     8    4   25 1   
     9    4   26 1   
    10    5    6 1   
    11    5    7 1   
    12    5   10 1   
    13    6   27 1   
    14    6   28 1   
    15    6   29 1   
    16    7   30 1   
    17    7   31 1   
    18    7   32 1   
    19    8    9 1   
    20    8   10 2   
    21    9   33 1   
    22    9   34 1   
    23    9   35 1   
    24   10   11 1   
    25   11   12 2   
    26   11   36 1   
    27   12   13 1   
    28   12   37 1   
    29   13   14 1   
    30   13   15 2   
    31   14   38 1   
    32   14   39 1   
    33   14   40 1   
    34   15   16 2   
    35   16   17 2   
    36   17   18 1   
    37   17   43 1   
    38   18   19 1   
    39   18   20 2   
    40   19   44 1   
    41   19   45 1   
    42   19   46 1   
    43   20   21 1   
    44   20   47 1   
    45   21   22 1   
    46   21   48 1   
    47   21   49 1   
    48   22   50 1   
    49   41   42 1   
@<TRIPOS>SUBSTRUCTURE
     1 OXR         1 TEMP              0 ****  ****    0 ROOT
