@<TRIPOS>MOLECULE
OXS
   16    15     1     0     0
SMALL
bcc


@<TRIPOS>ATOM
      1 C1         -0.2370   -0.6020    0.0050 c         1 OXS      0.933600
      2 C2          1.2400   -0.1240    0.0430 c3        1 OXS     -0.248700
      3 C3          1.6690    0.1200    1.4870 c3        1 OXS     -0.148400
      4 C4          1.9640    1.5500    1.9370 c         1 OXS      0.901600
      5 C5          2.1430   -1.1190   -0.6520 c         1 OXS      0.524100
      6 C6          2.3830   -1.0300   -2.1680 c         1 OXS      0.847600
      7 O1         -0.6150   -1.5740    0.7310 o         1 OXS     -0.883800
      8 O2         -1.0650    0.0240   -0.7260 o         1 OXS     -0.883800
      9 O3          1.9400    2.5490    1.1580 o         1 OXS     -0.903800
     10 O4          2.2600    1.7150    3.1740 o         1 OXS     -0.903800
     11 O5          2.7690   -1.9980   -0.0280 o         1 OXS     -0.653100
     12 O6          3.1900   -0.1520   -2.6040 o         1 OXS     -0.870300
     13 O7          1.8540   -1.8860   -2.9390 o         1 OXS     -0.870300
     14 H2          1.2990    0.8460   -0.5250 hc        1 OXS      0.093700
     15 H31         2.6000   -0.4700    1.7050 hc        1 OXS      0.031700
     16 H32         0.8740   -0.2790    2.1720 hc        1 OXS      0.031700
@<TRIPOS>BOND
     1    1    2 1   
     2    1    7 1   
     3    1    8 1   
     4    2    3 1   
     5    2    5 1   
     6    2   14 1   
     7    3    4 1   
     8    3   15 1   
     9    3   16 1   
    10    4    9 1   
    11    4   10 1   
    12    5    6 1   
    13    5   11 2   
    14    6   12 1   
    15    6   13 1   
@<TRIPOS>SUBSTRUCTURE
     1 OXS         1 TEMP              0 ****  ****    0 ROOT
