@<TRIPOS>MOLECULE
molecule
   16    15     1     0     0
SMALL
bcc


@<TRIPOS>ATOM
      1 C1           0.0000     0.0000     0.0000 c          1 OXS       0.936600
      2 C2           1.5060     0.0000     0.0000 c3         1 OXS      -0.249700
      3 C3           2.0160     0.0000     1.4420 c3         1 OXS      -0.144400
      4 C4           1.5120     1.2290     2.1530 c          1 OXS       0.913600
      5 C5           2.0080    -1.2290    -0.7110 c          1 OXS       0.517100
      6 C6           2.2570    -1.1910    -2.1790 c          1 OXS       0.815600
      7 O1          -0.6050    -0.0010     1.0450 o          1 OXS      -0.873800
      8 O2          -0.6710     0.0010    -1.1620 o          1 OXS      -0.873800
      9 O3           0.8180     2.0240     1.5670 o          1 OXS      -0.894300
     10 O4           1.8360     1.4410     3.4390 o          1 OXS      -0.894300
     11 O5           2.2100    -2.2460    -0.0910 o          1 OXS      -0.619100
     12 O6           2.0550    -0.1710    -2.8020 o          1 OXS      -0.863800
     13 O7           2.7070    -2.2890    -2.8150 o          1 OXS      -0.863800
     14 H2           1.8660     0.8850    -0.5100 hc         1 OXS       0.071700
     15 H31          1.6560    -0.8850     1.9530 hc         1 OXS       0.011700
     16 H32          3.0990     0.0010     1.4420 hc         1 OXS       0.011700
@<TRIPOS>BOND
     1     1     2 1
     2     1     7 1
     3     1     8 1
     4     2     3 1
     5     2     5 1
     6     2    14 1
     7     3     4 1
     8     3    15 1
     9     3    16 1
    10     4     9 1
    11     4    10 1
    12     5     6 1
    13     5    11 2
    14     6    12 1
    15     6    13 1
@<TRIPOS>SUBSTRUCTURE
     1 OXS         1 TEMP              0 ****  ****    0 ROOT
