@<TRIPOS>MOLECULE
molecule
    2     1     1     0     0
SMALL
bcc


@<TRIPOS>ATOM
      1 O1           0.0000     0.0000    -0.5010 o          1 OXY       0.000000
      2 O2           0.0000     0.0000     0.5010 o          1 OXY      -0.000000
@<TRIPOS>BOND
     1     1     2 2
@<TRIPOS>SUBSTRUCTURE
     1 OXY         1 TEMP              0 ****  ****    0 ROOT
