@<TRIPOS>MOLECULE
molecule
   21    21     1     0     0
SMALL
bcc


@<TRIPOS>ATOM
      1 C6           0.0000     0.0000     0.0000 c3         1 OXZ       0.147400
      2 C5           1.5290     0.0000     0.0000 c3         1 OXZ       0.144100
      3 C4           2.0390     0.0000     1.4430 c3         1 OXZ       0.115100
      4 C3           3.5720     0.0370     1.4260 c3         1 OXZ       0.131100
      5 C2           4.0260     1.1980     0.5370 c3         1 OXZ       0.093800
      6 O6          -0.4780    -0.0010    -1.3460 oh         1 OXZ      -0.597800
      7 O5           2.0040     1.1630    -0.6750 os         1 OXZ      -0.229100
      8 O4           1.5950    -1.1820     2.1110 oh         1 OXZ      -0.602800
      9 O3           4.0640     0.2260     2.7530 oh         1 OXZ      -0.606800
     10 N1           3.4520     1.0390    -0.8030 n7         1 OXZ      -0.564700
     11 H1C1        -0.3610     0.8850     0.5100 h1         1 OXZ       0.033200
     12 H1C2        -0.3610    -0.8840     0.5120 h1         1 OXZ       0.033200
     13 H2           1.8940    -0.8840    -0.5090 h1         1 OXZ       0.079700
     14 H3           1.6630     0.8760     1.9580 h1         1 OXZ       0.052700
     15 H4           3.9500    -0.8950     1.0230 h1         1 OXZ       0.060700
     16 H5C1         5.1070     1.1970     0.4680 h1         1 OXZ       0.055700
     17 H5C2         3.6870     2.1330     0.9660 h1         1 OXZ       0.055700
     18 HA          -1.4190    -0.0620    -1.3450 ho         1 OXZ       0.402000
     19 HB           1.3240    -0.9640     2.9880 ho         1 OXZ       0.412000
     20 HC           4.7930    -0.3540     2.9040 ho         1 OXZ       0.410000
     21 H1           3.7970     1.7630    -1.4020 hn         1 OXZ       0.375800
@<TRIPOS>BOND
     1     1     2 1
     2     1     6 1
     3     1    11 1
     4     1    12 1
     5     2     3 1
     6     2     7 1
     7     2    13 1
     8     3     4 1
     9     3     8 1
    10     3    14 1
    11     4     5 1
    12     4     9 1
    13     4    15 1
    14     5    10 1
    15     5    16 1
    16     5    17 1
    17     6    18 1
    18     7    10 1
    19     8    19 1
    20     9    20 1
    21    10    21 1
@<TRIPOS>SUBSTRUCTURE
     1 OXZ         1 TEMP              0 ****  ****    0 ROOT
