@<TRIPOS>MOLECULE
OY0
   46    46     1     0     0
SMALL
bcc


@<TRIPOS>ATOM
      1 CAA          0.0000     0.0000     0.0000 c3         1 OY0       0.009900
      2 CAB          3.4350     2.3170     1.1960 c3         1 OY0      -0.020100
      3 CAC          4.1830     0.9060    -0.7250 c3         1 OY0      -0.020100
      4 CAD          5.6590     1.1820     1.2720 c3         1 OY0      -0.020100
      5 NAE          6.5900    -3.4930     9.1830 nz         1 OY0      -0.168500
      6 OAF          3.3910     0.1520     3.7780 o          1 OY0      -0.604100
      7 OAG          6.2940    -0.9270     9.6330 o          1 OY0      -0.439300
      8 OAH          8.3360    -1.5580     8.8890 o          1 OY0      -0.439300
      9 CAI          6.9620    -1.1460     4.7760 ca         1 OY0      -0.136000
     10 CAJ          4.6600    -1.3840     5.4240 ca         1 OY0      -0.136000
     11 CAK          7.3500    -1.3720     6.0820 ca         1 OY0       0.028000
     12 CAL          5.0550    -1.6220     6.7260 ca         1 OY0       0.028000
     13 CAM          1.5310     0.0000     0.0000 c3         1 OY0      -0.061400
     14 CAN          2.0420     0.0000     1.4420 c3         1 OY0      -0.013400
     15 CAP          4.0500    -0.2990     2.8640 c          1 OY0       0.579100
     16 CAQ          5.6140    -1.1500     4.4420 ca         1 OY0       0.032600
     17 CAR          6.3970    -1.6100     7.0560 ca         1 OY0      -0.184500
     18 CAS          3.5620    -0.1650     1.4460 c3         1 OY0      -0.109700
     19 CAT          4.2100     1.0600     0.7970 c3         1 OY0      -0.059000
     20 SAU          6.9180    -1.8830     8.7170 sy         1 OY0       0.743200
     21 HAA         -0.3610    -0.1290    -1.0130 hc         1 OY0       0.005033
     22 HAAA        -0.3610    -0.8130     0.6180 hc         1 OY0       0.005033
     23 HAB          2.6290     2.4830     0.4920 hc         1 OY0       0.017367
     24 HABA         4.1030     3.1710     1.1880 hc         1 OY0       0.017367
     25 HABB         3.0250     2.1890     2.1900 hc         1 OY0       0.017367
     26 HAC          4.6950    -0.0070    -1.0050 hc         1 OY0       0.017367
     27 HACA         4.6790     1.7530    -1.1830 hc         1 OY0       0.017367
     28 HACB         3.1550     0.8620    -1.0650 hc         1 OY0       0.017367
     29 HAD          6.1330     0.2080     1.2390 hc         1 OY0       0.017367
     30 HADA         5.6760     1.5580     2.2880 hc         1 OY0       0.017367
     31 HADB         6.1950     1.8660     0.6250 hc         1 OY0       0.017367
     32 HNAE         7.2920    -4.0990     8.8060 hn         1 OY0       0.322133
     33 HNAA         5.6930    -3.7650     8.8340 hn         1 OY0       0.322133
     34 HAI          7.7090    -0.9590     4.0140 ha         1 OY0       0.150500
     35 HAJ          3.6080    -1.3930     5.1660 ha         1 OY0       0.150500
     36 HAK          8.4010    -1.3680     6.3430 ha         1 OY0       0.120500
     37 HAL          4.3100    -1.7680     7.4990 ha         1 OY0       0.120500
     38 HAM          1.8920    -0.8850    -0.5110 hc         1 OY0       0.030700
     39 HAN          1.8700    -0.9730     1.8860 hc         1 OY0       0.030200
     40 HANA         1.5140     0.7550     2.0120 hc         1 OY0       0.030200
     41 HNAO         5.8080    -1.1560     2.3470 hn         1 OY0       0.202500
     42 HAS          3.8300    -1.0530     0.8870 hc         1 OY0       0.044700
     43 H23         -0.3610     0.9420     0.3950 hc         1 OY0       0.005033
     44 H24          1.8920     0.8840    -0.5110 hc         1 OY0       0.030700
     45 NAO          5.2180    -0.9200     3.1200 ns         1 OY0      -0.056100
     46 HAE3         7.1550    -3.7330     9.9730 hn         1 OY0       0.322133
@<TRIPOS>BOND
     1     1    13 1   
     2     1    21 1   
     3     1    22 1   
     4     1    43 1   
     5     2    19 1   
     6     2    23 1   
     7     2    24 1   
     8     2    25 1   
     9     3    19 1   
    10     3    26 1   
    11     3    27 1   
    12     3    28 1   
    13     4    19 1   
    14     4    29 1   
    15     4    30 1   
    16     4    31 1   
    17     5    20 1   
    18     5    32 1   
    19     5    33 1   
    20     5    46 1   
    21     6    15 2   
    22     7    20 2   
    23     8    20 2   
    24     9    11 ar  
    25     9    16 ar  
    26     9    34 1   
    27    10    12 ar  
    28    10    16 ar  
    29    10    35 1   
    30    11    17 ar  
    31    11    36 1   
    32    12    17 ar  
    33    12    37 1   
    34    13    14 1   
    35    13    38 1   
    36    13    44 1   
    37    14    18 1   
    38    14    39 1   
    39    14    40 1   
    40    15    18 1   
    41    15    45 1   
    42    16    45 1   
    43    17    20 1   
    44    18    19 1   
    45    18    42 1   
    46    41    45 1   
@<TRIPOS>SUBSTRUCTURE
     1 OY0         1 TEMP              0 ****  ****    0 ROOT
