@<TRIPOS>MOLECULE
OYA
   25    24     1     0     0
SMALL
bcc


@<TRIPOS>ATOM
      1 C14         0.0050   -0.0330    0.0040 c3        1 OYA     -0.093100
      2 C5          1.5110   -0.0550    0.0250 c3        1 OYA     -0.080400
      3 C6          2.0470    0.0010    1.4400 c3        1 OYA     -0.079400
      4 C11         3.5600   -0.0220    1.4570 c3        1 OYA     -0.079400
      5 C7          4.0940    0.0350    2.8720 c3        1 OYA     -0.078400
      6 C8          5.6070    0.0110    2.8880 c3        1 OYA     -0.076400
      7 C9          6.1370    0.0710    4.3040 c3        1 OYA     -0.204400
      8 C10         7.6330    0.0200    4.3390 c         1 OYA      0.564900
      9 OAB         8.3000    0.5250    5.2430 o         1 OYA     -0.528100
     10 H141       -0.3690   -0.0740   -1.0480 hc        1 OYA      0.033033
     11 H142       -0.3830    0.9010    0.4790 hc        1 OYA      0.033033
     12 H143       -0.4110   -0.9070    0.5600 hc        1 OYA      0.033033
     13 H51         1.8820   -0.9870   -0.4780 hc        1 OYA      0.038700
     14 H52         1.9090    0.8160   -0.5590 hc        1 OYA      0.038700
     15 H61         1.6510   -0.8700    2.0260 hc        1 OYA      0.040200
     16 H62         1.6790    0.9330    1.9440 hc        1 OYA      0.040200
     17 H111        3.9560    0.8480    0.8700 hc        1 OYA      0.040200
     18 H112        3.9280   -0.9550    0.9530 hc        1 OYA      0.040200
     19 H71         3.6970   -0.8350    3.4600 hc        1 OYA      0.042700
     20 H72         3.7270    0.9690    3.3750 hc        1 OYA      0.042700
     21 H81         5.9730   -0.9240    2.3850 hc        1 OYA      0.043700
     22 H82         6.0030    0.8800    2.3000 hc        1 OYA      0.043700
     23 H91         5.7490   -0.8020    4.8960 hc        1 OYA      0.074200
     24 H92         5.7750    1.0030    4.8140 hc        1 OYA      0.074200
     25 H10         8.1170   -0.5180    3.4930 h4        1 OYA     -0.006800
@<TRIPOS>BOND
     1    1    2 1   
     2    1   10 1   
     3    1   11 1   
     4    1   12 1   
     5    2    3 1   
     6    2   13 1   
     7    2   14 1   
     8    3    4 1   
     9    3   15 1   
    10    3   16 1   
    11    4    5 1   
    12    4   17 1   
    13    4   18 1   
    14    5    6 1   
    15    5   19 1   
    16    5   20 1   
    17    6    7 1   
    18    6   21 1   
    19    6   22 1   
    20    7    8 1   
    21    7   23 1   
    22    7   24 1   
    23    8    9 2   
    24    8   25 1   
@<TRIPOS>SUBSTRUCTURE
     1 OYA         1 TEMP              0 ****  ****    0 ROOT
