@<TRIPOS>MOLECULE
molecule
   25    24     1     0     0
SMALL
bcc


@<TRIPOS>ATOM
      1 C14          0.0000     0.0000     0.0000 c3         1 OYA      -0.092100
      2 C5           1.5300     0.0000     0.0000 c3         1 OYA      -0.084400
      3 C6           2.0390     0.0000     1.4420 c3         1 OYA      -0.081400
      4 C11          3.5700    -0.0010     1.4430 c3         1 OYA      -0.082400
      5 C7           4.0790    -0.0010     2.8850 c3         1 OYA      -0.080400
      6 C8           5.6090    -0.0020     2.8860 c3         1 OYA      -0.075400
      7 C9           6.1190    -0.0020     4.3290 c3         1 OYA      -0.204400
      8 C10          7.6270    -0.0030     4.3280 c          1 OYA       0.567900
      9 OAB          8.2300     0.8540     4.9280 o          1 OYA      -0.522100
     10 H141        -0.3610    -0.8850     0.5100 hc         1 OYA       0.033033
     11 H142        -0.3610     0.8840     0.5110 hc         1 OYA       0.033033
     12 H143        -0.3610     0.0000    -1.0210 hc         1 OYA       0.033033
     13 H51          1.8910     0.8850    -0.5110 hc         1 OYA       0.040200
     14 H52          1.8910    -0.8850    -0.5110 hc         1 OYA       0.040200
     15 H61          1.6770    -0.8840     1.9530 hc         1 OYA       0.042200
     16 H62          1.6780     0.8850     1.9530 hc         1 OYA       0.042200
     17 H111         3.9300    -0.8860     0.9330 hc         1 OYA       0.041700
     18 H112         3.9310     0.8830     0.9320 hc         1 OYA       0.041700
     19 H71          3.7180    -0.8850     3.3960 hc         1 OYA       0.043700
     20 H72          3.7190     0.8840     3.3960 hc         1 OYA       0.043700
     21 H81          5.9690    -0.8870     2.3750 hc         1 OYA       0.045200
     22 H82          5.9710     0.8820     2.3750 hc         1 OYA       0.045200
     23 H91          5.7580    -0.8860     4.8400 hc         1 OYA       0.068200
     24 H92          5.7590     0.8830     4.8390 hc         1 OYA       0.068200
     25 H10          8.1670    -0.7990     3.8310 h4         1 OYA      -0.006800
@<TRIPOS>BOND
     1     1     2 1
     2     1    10 1
     3     1    11 1
     4     1    12 1
     5     2     3 1
     6     2    13 1
     7     2    14 1
     8     3     4 1
     9     3    15 1
    10     3    16 1
    11     4     5 1
    12     4    17 1
    13     4    18 1
    14     5     6 1
    15     5    19 1
    16     5    20 1
    17     6     7 1
    18     6    21 1
    19     6    22 1
    20     7     8 1
    21     7    23 1
    22     7    24 1
    23     8     9 2
    24     8    25 1
@<TRIPOS>SUBSTRUCTURE
     1 OYA         1 TEMP              0 ****  ****    0 ROOT
