@<TRIPOS>MOLECULE
molecule
   58    61     1     0     0
SMALL
bcc


@<TRIPOS>ATOM
      1 S1           0.0000     0.0000     0.0000 s6         1 OYJ       1.341900
      2 C2           3.7380     0.0000     1.5340 c3         1 OYJ      -0.141700
      3 C3           3.9720     0.0000     0.0000 c3         1 OYJ      -0.148700
      4 N4           1.6080    -0.1230     0.3760 n3         1 OYJ      -0.828500
      5 C5           4.5280     1.0990     2.1940 c          1 OYJ       0.677100
      6 N6           7.7190     5.0400     6.0230 n          1 OYJ      -0.233200
      7 C7           5.1670    -0.8430    -0.3640 c          1 OYJ       0.676100
      8 C8           2.2230     0.2690     1.6530 c3         1 OYJ       0.244800
      9 C9           2.6610    -0.6450    -0.5150 c3         1 OYJ       0.247800
     10 C10          8.7470     4.6290     6.7900 c          1 OYJ       0.683700
     11 C11          6.9000     4.0910     5.3970 ca         1 OYJ       0.025600
     12 N12          4.4620     1.2680     3.5300 ns         1 OYJ      -0.462100
     13 C13          5.7340     3.6620     6.0200 ca         1 OYJ      -0.131000
     14 N14          5.5350    -0.9680    -1.6550 ns         1 OYJ      -0.469100
     15 C15          5.2810     2.2170     4.1570 ca         1 OYJ       0.034600
     16 C16          4.9260     2.7270     5.4020 ca         1 OYJ       0.096900
     17 C17          7.5580    -3.3980    -3.5360 ca         1 OYJ       0.160900
     18 C18          6.5240    -2.5460    -3.1930 ca         1 OYJ      -0.201000
     19 O19         -0.2080    -1.0040    -0.9840 o          1 OYJ      -0.617300
     20 O20         -0.6580    -0.0590     1.2580 o          1 OYJ      -0.617300
     21 C21          7.4650     6.3640     5.8550 cc         1 OYJ       0.011600
     22 C22          6.5800    -1.8320    -2.0040 ca         1 OYJ       0.078600
     23 O23          5.2250     1.8320     1.5230 o          1 OYJ      -0.597100
     24 O24          5.7990    -1.4070     0.5040 o          1 OYJ      -0.585100
     25 C25          9.5740     5.5720     7.4220 cc         1 OYJ      -0.259200
     26 C26          8.6490    -3.5380    -2.6920 ca         1 OYJ      -0.030600
     27 O27          8.9610     3.4360     6.9360 o          1 OYJ      -0.639500
     28 C28          7.2490     3.5870     4.1520 ca         1 OYJ      -0.099000
     29 C29          6.4420     2.6520     3.5340 ca         1 OYJ      -0.116000
     30 C30          8.2390     7.2990     6.4550 cd         1 OYJ      -0.246000
     31 C31          9.3230     6.9020     7.2500 cd         1 OYJ      -0.048000
     32 C32          8.7060    -2.8270    -1.5070 ca         1 OYJ      -0.080000
     33 C33         -0.1690     1.6520    -0.7300 c3         1 OYJ      -0.248300
     34 F34          3.7930     2.3080     6.0060 f          1 OYJ      -0.139900
     35 C36          7.6750    -1.9750    -1.1620 ca         1 OYJ      -0.133000
     36 Cl           9.9460    -4.6090    -3.1230 cl         1 OYJ      -0.085400
     37 H331         0.3780     1.6910    -1.6650 h1         1 OYJ       0.098367
     38 H332        -1.2160     1.8590    -0.9160 h1         1 OYJ       0.098367
     39 H333         0.2300     2.3920    -0.0470 h1         1 OYJ       0.098367
     40 H2           3.9870    -0.9660     1.9560 hc         1 OYJ       0.111700
     41 H3           4.0740     1.0120    -0.3730 hc         1 OYJ       0.103700
     42 H81C         2.0500     1.3230     1.8350 h1         1 OYJ       0.056700
     43 H82C         1.8060    -0.3230     2.4580 h1         1 OYJ       0.056700
     44 H91C         2.7170    -1.7240    -0.4380 h1         1 OYJ       0.059200
     45 H92C         2.4710    -0.3430    -1.5380 h1         1 OYJ       0.059200
     46 H12          3.8420     0.7030     4.0750 hn         1 OYJ       0.339500
     47 H21          6.6300     6.6760     5.2380 h4         1 OYJ       0.158000
     48 H14          4.9880    -0.5330    -2.3720 hn         1 OYJ       0.327500
     49 H25         10.4050     5.2470     8.0370 ha         1 OYJ       0.166000
     50 H13          5.4590     4.0600     6.9900 ha         1 OYJ       0.159000
     51 H28          8.1550     3.9260     3.6650 ha         1 OYJ       0.152000
     52 H29          6.7160     2.2590     2.5630 ha         1 OYJ       0.191000
     53 H18          5.6710    -2.4360    -3.8520 ha         1 OYJ       0.150000
     54 H30          8.0280     8.3510     6.3120 ha         1 OYJ       0.148000
     55 H36          7.7200    -1.4180    -0.2340 ha         1 OYJ       0.176000
     56 H31          9.9490     7.6440     7.7310 ha         1 OYJ       0.137000
     57 H32          9.5590    -2.9380    -0.8500 ha         1 OYJ       0.157000
     58 F35          7.5020    -4.0980    -4.6890 f          1 OYJ      -0.124900
@<TRIPOS>BOND
     1     1     4 1
     2     1    19 2
     3     1    20 2
     4     1    33 1
     5     2     3 1
     6     2     5 1
     7     2     8 1
     8     3     7 1
     9     3     9 1
    10     4     8 1
    11     4     9 1
    12     5    12 1
    13     5    23 2
    14     6    10 1
    15     6    11 1
    16     6    21 1
    17     7    14 1
    18     7    24 2
    19    10    25 1
    20    10    27 2
    21    11    13 ar
    22    11    28 ar
    23    12    15 1
    24    13    16 ar
    25    14    22 1
    26    15    16 ar
    27    15    29 ar
    28    16    34 1
    29    17    18 ar
    30    17    26 ar
    31    17    58 1
    32    18    22 ar
    33    21    30 2
    34    22    35 ar
    35    25    31 2
    36    26    32 ar
    37    26    36 1
    38    28    29 ar
    39    30    31 1
    40    32    35 ar
    41    33    37 1
    42    33    38 1
    43    33    39 1
    44     2    40 1
    45     3    41 1
    46     8    42 1
    47     8    43 1
    48     9    44 1
    49     9    45 1
    50    12    46 1
    51    21    47 1
    52    14    48 1
    53    25    49 1
    54    13    50 1
    55    28    51 1
    56    29    52 1
    57    18    53 1
    58    30    54 1
    59    35    55 1
    60    31    56 1
    61    32    57 1
@<TRIPOS>SUBSTRUCTURE
     1 OYJ         1 TEMP              0 ****  ****    0 ROOT
