@<TRIPOS>MOLECULE
OYJ
   58    61     1     0     0
SMALL
bcc


@<TRIPOS>ATOM
      1 S1           0.0000     0.0000     0.0000 s6         1 OYJ       0.985900
      2 C2           3.7380     0.0000     1.5340 c3         1 OYJ      -0.127700
      3 C3           3.9720     0.0000     0.0000 c3         1 OYJ      -0.133700
      4 N4           1.6080    -0.1230     0.3760 n3         1 OYJ      -0.568500
      5 C5           4.5280     1.0990     2.1940 c          1 OYJ       0.582100
      6 N6           7.7190     5.0400     6.0230 n          1 OYJ       0.244800
      7 C7           5.1670    -0.8430    -0.3640 c          1 OYJ       0.582100
      8 C8           2.2230     0.2690     1.6530 c3         1 OYJ       0.258800
      9 C9           2.6610    -0.6450    -0.5150 c3         1 OYJ       0.261800
     10 C10          8.7470     4.6290     6.7900 c          1 OYJ       0.575700
     11 C11          6.9000     4.0910     5.3970 ca         1 OYJ      -0.129400
     12 N12          4.4620     1.2680     3.5300 ns         1 OYJ      -0.010100
     13 C13          5.7340     3.6620     6.0200 ca         1 OYJ      -0.083000
     14 N14          5.5350    -0.9680    -1.6550 ns         1 OYJ      -0.024100
     15 C15          5.2810     2.2170     4.1570 ca         1 OYJ      -0.095400
     16 C16          4.9260     2.7270     5.4020 ca         1 OYJ       0.067900
     17 C17          7.5580    -3.3980    -3.5360 ca         1 OYJ       0.130900
     18 C18          6.5240    -2.5460    -3.1930 ca         1 OYJ      -0.162000
     19 O19         -0.2080    -1.0040    -0.9840 o          1 OYJ      -0.575800
     20 O20         -0.6580    -0.0590     1.2580 o          1 OYJ      -0.575800
     21 C21          7.4650     6.3640     5.8550 cc         1 OYJ      -0.141400
     22 C22          6.5800    -1.8320    -2.0040 ca         1 OYJ      -0.068400
     23 O23          5.2250     1.8320     1.5230 o          1 OYJ      -0.641100
     24 O24          5.7990    -1.4070     0.5040 o          1 OYJ      -0.631100
     25 C25          9.5740     5.5720     7.4220 cc         1 OYJ      -0.236200
     26 C26          8.6490    -3.5380    -2.6920 ca         1 OYJ      -0.088600
     27 O27          8.9610     3.4360     6.9360 o          1 OYJ      -0.692500
     28 C28          7.2490     3.5870     4.1520 ca         1 OYJ      -0.052000
     29 C29          6.4420     2.6520     3.5340 ca         1 OYJ      -0.103000
     30 C30          8.2390     7.2990     6.4550 cd         1 OYJ      -0.210000
     31 C31          9.3230     6.9020     7.2500 cd         1 OYJ      -0.022000
     32 C32          8.7060    -2.8270    -1.5070 ca         1 OYJ      -0.054000
     33 C33         -0.1690     1.6520    -0.7300 c3         1 OYJ       0.013700
     34 F34          3.7930     2.3080     6.0060 f          1 OYJ      -0.124900
     35 C36          7.6750    -1.9750    -1.1620 ca         1 OYJ      -0.105000
     36 Cl           9.9460    -4.6090    -3.1230 cl         1 OYJ       0.005600
     37 H331         0.3780     1.6910    -1.6650 h1         1 OYJ       0.062700
     38 H332        -1.2160     1.8590    -0.9160 h1         1 OYJ       0.062700
     39 H333         0.2300     2.3920    -0.0470 h1         1 OYJ       0.062700
     40 H2           3.9870    -0.9660     1.9560 hc         1 OYJ       0.081700
     41 H3           4.0740     1.0120    -0.3730 hc         1 OYJ       0.071700
     42 H81C         2.0500     1.3230     1.8350 h1         1 OYJ       0.016200
     43 H82C         1.8060    -0.3230     2.4580 h1         1 OYJ       0.016200
     44 H91C         2.7170    -1.7240    -0.4380 h1         1 OYJ       0.018700
     45 H92C         2.4710    -0.3430    -1.5380 h1         1 OYJ       0.018700
     46 H12          3.8420     0.7030     4.0750 hn         1 OYJ       0.181500
     47 H21          6.6300     6.6760     5.2380 h4         1 OYJ       0.129000
     48 H14          4.9880    -0.5330    -2.3720 hn         1 OYJ       0.169500
     49 H25         10.4050     5.2470     8.0370 ha         1 OYJ       0.137000
     50 H13          5.4590     4.0600     6.9900 ha         1 OYJ       0.128000
     51 H28          8.1550     3.9260     3.6650 ha         1 OYJ       0.117000
     52 H29          6.7160     2.2590     2.5630 ha         1 OYJ       0.171000
     53 H18          5.6710    -2.4360    -3.8520 ha         1 OYJ       0.123000
     54 H30          8.0280     8.3510     6.3120 ha         1 OYJ       0.121000
     55 H36          7.7200    -1.4180    -0.2340 ha         1 OYJ       0.152000
     56 H31          9.9490     7.6440     7.7310 ha         1 OYJ       0.105000
     57 H32          9.5590    -2.9380    -0.8500 ha         1 OYJ       0.121000
     58 F35          7.5020    -4.0980    -4.6890 f          1 OYJ      -0.119900
@<TRIPOS>BOND
     1     1     4 1   
     2     1    19 2   
     3     1    20 2   
     4     1    33 1   
     5     2     3 1   
     6     2     5 1   
     7     2     8 1   
     8     2    40 1   
     9     3     7 1   
    10     3     9 1   
    11     3    41 1   
    12     4     8 1   
    13     4     9 1   
    14     5    12 1   
    15     5    23 2   
    16     6    10 1   
    17     6    11 1   
    18     6    21 1   
    19     7    14 1   
    20     7    24 2   
    21     8    42 1   
    22     8    43 1   
    23     9    44 1   
    24     9    45 1   
    25    10    25 1   
    26    10    27 2   
    27    11    13 ar  
    28    11    28 ar  
    29    12    15 1   
    30    12    46 1   
    31    13    16 ar  
    32    13    50 1   
    33    14    22 1   
    34    14    48 1   
    35    15    16 ar  
    36    15    29 ar  
    37    16    34 1   
    38    17    18 ar  
    39    17    26 ar  
    40    17    58 1   
    41    18    22 ar  
    42    18    53 1   
    43    21    30 2   
    44    21    47 1   
    45    22    35 ar  
    46    25    31 2   
    47    25    49 1   
    48    26    32 ar  
    49    26    36 1   
    50    28    29 ar  
    51    28    51 1   
    52    29    52 1   
    53    30    31 1   
    54    30    54 1   
    55    31    56 1   
    56    32    35 ar  
    57    32    57 1   
    58    33    37 1   
    59    33    38 1   
    60    33    39 1   
    61    35    55 1   
@<TRIPOS>SUBSTRUCTURE
     1 OYJ         1 TEMP              0 ****  ****    0 ROOT
