@<TRIPOS>MOLECULE
OYP
   59    59     1     0     0
SMALL
bcc


@<TRIPOS>ATOM
      1 C1          0.4810   -0.2610    0.2920 ca        1 OYP     -0.116500
      2 O1         -1.3640   -0.9160    6.8070 o         1 OYP     -0.848800
      3 C2          0.4980    1.0680   -0.1530 ca        1 OYP     -0.126300
      4 O2          0.6080   -1.7350    6.1540 o         1 OYP     -0.848800
      5 C3          0.5690    2.1030    0.7820 ca        1 OYP     -0.116500
      6 O3          1.0420    2.5840   -1.9020 os        1 OYP     -0.406600
      7 C4          0.6160    1.8150    2.1450 ca        1 OYP     -0.141500
      8 C5          0.5910    0.4900    2.5980 ca        1 OYP     -0.030300
      9 C6          0.5240   -0.5440    1.6520 ca        1 OYP     -0.141500
     10 C7          0.6430    0.1720    4.0500 c3        1 OYP     -0.043100
     11 C8         -0.6500   -0.4200    4.5670 c3        1 OYP     -0.191400
     12 C9         -0.4480   -1.0680    5.9500 c         1 OYP      0.907600
     13 C10         0.4000    1.3370   -1.6150 c3        1 OYP      0.184700
     14 C11         0.9640    2.8970   -3.2950 c3        1 OYP      0.213500
     15 C12         1.6090    4.1610   -3.5220 c1        1 OYP     -0.128100
     16 C13         2.1440    5.2130   -3.7220 c1        1 OYP     -0.124100
     17 C14         2.7700    6.4790   -3.9580 c3        1 OYP      0.002700
     18 C15         4.0430    6.3500   -4.7770 c3        1 OYP     -0.077400
     19 C16         4.6780    7.7060   -5.0000 c3        1 OYP     -0.080400
     20 C17         5.9450    7.5880   -5.8200 c3        1 OYP     -0.079400
     21 C18         6.5810    8.9430   -6.0450 c3        1 OYP     -0.079400
     22 C19         7.8470    8.8260   -6.8670 c3        1 OYP     -0.079400
     23 C20         8.4830   10.1810   -7.0930 c3        1 OYP     -0.079400
     24 C21         9.7470   10.0640   -7.9170 c3        1 OYP     -0.079400
     25 C22        10.3840   11.4180   -8.1450 c3        1 OYP     -0.080400
     26 C23        11.6430   11.3070   -8.9660 c3        1 OYP     -0.092100
     27 H1          0.4330   -1.0820   -0.4380 ha        1 OYP      0.123500
     28 H3          0.5940    3.1460    0.4330 ha        1 OYP      0.123500
     29 H4          0.6710    2.6370    2.8740 ha        1 OYP      0.137000
     30 H6          0.5030   -1.5880    2.0040 ha        1 OYP      0.137000
     31 H7          1.4660   -0.5730    4.2430 hc        1 OYP      0.060200
     32 H7A         0.8870    1.0950    4.6390 hc        1 OYP      0.060200
     33 H8         -1.0150   -1.2160    3.8690 hc        1 OYP      0.024700
     34 H8A        -1.4420    0.3660    4.6370 hc        1 OYP      0.024700
     35 H10         0.8970    0.5220   -2.2080 h1        1 OYP      0.025200
     36 H10A       -0.6810    1.4020   -1.9240 h1        1 OYP      0.025200
     37 H11        -0.1180    2.9510   -3.6080 h1        1 OYP      0.039700
     38 H11A        1.4760    2.0870   -3.8900 h1        1 OYP      0.039700
     39 H14         3.0090    6.9600   -2.9670 hc        1 OYP      0.057700
     40 H14A        2.0480    7.1590   -4.4920 hc        1 OYP      0.057700
     41 H15         4.7650    5.6760   -4.2450 hc        1 OYP      0.048200
     42 H15A        3.8090    5.8740   -5.7650 hc        1 OYP      0.048200
     43 H16         3.9510    8.3800   -5.5260 hc        1 OYP      0.039200
     44 H16A        4.9120    8.1790   -4.0110 hc        1 OYP      0.039200
     45 H17         6.6710    6.9140   -5.2930 hc        1 OYP      0.040700
     46 H17A        5.7110    7.1140   -6.8090 hc        1 OYP      0.040700
     47 H18         5.8540    9.6180   -6.5680 hc        1 OYP      0.039200
     48 H18A        6.8180    9.4160   -5.0550 hc        1 OYP      0.039200
     49 H19         8.5740    8.1520   -6.3430 hc        1 OYP      0.039700
     50 H19A        7.6100    8.3520   -7.8560 hc        1 OYP      0.039700
     51 H20         7.7550   10.8560   -7.6150 hc        1 OYP      0.038700
     52 H20A        8.7210   10.6540   -6.1040 hc        1 OYP      0.038700
     53 H21        10.4760    9.3900   -7.3940 hc        1 OYP      0.039200
     54 H21A        9.5090    9.5900   -8.9050 hc        1 OYP      0.039200
     55 H22        10.6200   11.8910   -7.1550 hc        1 OYP      0.038200
     56 H22A        9.6530   12.0920   -8.6650 hc        1 OYP      0.038200
     57 H23        12.3930   10.6590   -8.4510 hc        1 OYP      0.031700
     58 H23A       12.0960   12.3160   -9.1220 hc        1 OYP      0.031700
     59 H23B       11.4230   10.8600   -9.9650 hc        1 OYP      0.031700
@<TRIPOS>BOND
     1    1    3 ar  
     2    1    9 ar  
     3    1   27 1   
     4    2   12 1   
     5    3    5 ar  
     6    3   13 1   
     7    4   12 1   
     8    5    7 ar  
     9    5   28 1   
    10    6   13 1   
    11    6   14 1   
    12    7    8 ar  
    13    7   29 1   
    14    8    9 ar  
    15    8   10 1   
    16    9   30 1   
    17   10   11 1   
    18   10   31 1   
    19   10   32 1   
    20   11   12 1   
    21   11   33 1   
    22   11   34 1   
    23   13   35 1   
    24   13   36 1   
    25   14   15 1   
    26   14   37 1   
    27   14   38 1   
    28   15   16 3   
    29   16   17 1   
    30   17   18 1   
    31   17   39 1   
    32   17   40 1   
    33   18   19 1   
    34   18   41 1   
    35   18   42 1   
    36   19   20 1   
    37   19   43 1   
    38   19   44 1   
    39   20   21 1   
    40   20   45 1   
    41   20   46 1   
    42   21   22 1   
    43   21   47 1   
    44   21   48 1   
    45   22   23 1   
    46   22   49 1   
    47   22   50 1   
    48   23   24 1   
    49   23   51 1   
    50   23   52 1   
    51   24   25 1   
    52   24   53 1   
    53   24   54 1   
    54   25   26 1   
    55   25   55 1   
    56   25   56 1   
    57   26   57 1   
    58   26   58 1   
    59   26   59 1   
@<TRIPOS>SUBSTRUCTURE
     1 OYP         1 TEMP              0 ****  ****    0 ROOT
