@<TRIPOS>MOLECULE
molecule
   59    59     1     0     0
SMALL
bcc


@<TRIPOS>ATOM
      1 C1           0.0000     0.0000     0.0000 ca         1 OYP      -0.117500
      2 O1          -2.0980     2.5990     6.0290 o          1 OYP      -0.850800
      3 C2           1.3830     0.0000     0.0000 ca         1 OYP      -0.090300
      4 O2          -2.0630     0.3910     5.9700 o          1 OYP      -0.850800
      5 C3           2.0740     0.0000     1.1970 ca         1 OYP      -0.117500
      6 O3           2.3740     1.3480    -1.7180 os         1 OYP      -0.426600
      7 C4           1.3820    -0.0010     2.3940 ca         1 OYP      -0.156500
      8 C5           0.0000    -0.0020     2.3950 ca         1 OYP       0.010700
      9 C6          -0.6910     0.0050     1.1970 ca         1 OYP      -0.156500
     10 C7          -0.7530    -0.0030     3.7000 c3         1 OYP      -0.113100
     11 C8          -1.0090     1.4390     4.1430 c3         1 OYP      -0.238400
     12 C9          -1.7620     1.4380     5.4480 c          1 OYP       0.882600
     13 C10          2.1360    -0.0000    -1.3050 c3         1 OYP       0.169700
     14 C11          3.0860     1.4600    -2.9510 c3         1 OYP       0.216500
     15 C12          3.2740     2.8830    -3.2800 c1         1 OYP      -0.117100
     16 C13          3.4090     4.0160    -3.5550 c1         1 OYP      -0.134100
     17 C14          3.7240     5.6370    -3.8540 c3         1 OYP       0.003700
     18 C15          3.8840     6.4070    -2.3110 c3         1 OYP      -0.120400
     19 C16          4.3460     8.0250    -2.5620 c3         1 OYP      -0.095400
     20 C17          4.9390     8.2670    -1.1960 c3         1 OYP      -0.131400
     21 C18          4.9510    10.1260    -1.2540 c3         1 OYP      -0.154400
     22 C19          5.3430    10.6460    -0.0420 c3         1 OYP      -0.023400
     23 C20          5.4320    11.9790    -0.1420 c3         1 OYP      -0.066400
     24 C21          6.1060    12.8230     0.9170 c3         1 OYP      -0.139400
     25 C22          6.2740    14.2540     0.8770 c3         1 OYP      -0.021400
     26 C23          6.8730    14.5540     2.1590 c3         1 OYP      -0.120100
     27 H1          -0.5130    -0.3590    -0.8840 ha         1 OYP       0.128500
     28 H3           3.0310    -0.2590     1.6330 ha         1 OYP       0.128500
     29 H4           2.0060     0.2190     3.2520 ha         1 OYP       0.135500
     30 H6          -1.7600     0.1790     1.1900 ha         1 OYP       0.135500
     31 H7          -1.7600    -0.1650     4.0630 hc         1 OYP       0.111200
     32 H7A          0.0240    -0.1380     4.4430 hc         1 OYP       0.111200
     33 H8          -0.1610     2.1100     4.2150 hc         1 OYP       0.032200
     34 H8A         -1.6280     2.1120     3.5610 hc         1 OYP       0.032200
     35 H10          3.0980    -0.4900    -1.3940 h1         1 OYP       0.043200
     36 H10A         1.4240    -0.0080    -2.1220 h1         1 OYP       0.043200
     37 H11          2.9480     0.6600    -3.6680 h1         1 OYP       0.013700
     38 H11A         4.0850     1.0440    -2.9140 h1         1 OYP       0.013700
     39 H14          4.4030     5.9620    -4.6330 hc         1 OYP       0.054700
     40 H14A         2.7520     6.0770    -4.0400 hc         1 OYP       0.054700
     41 H15          3.0650     6.1770    -1.6400 hc         1 OYP       0.062200
     42 H15A         4.8640     6.0170    -2.0640 hc         1 OYP       0.062200
     43 H16          3.3430     8.3930    -2.7400 hc         1 OYP       0.070200
     44 H16A         5.1890     7.9540    -3.2390 hc         1 OYP       0.070200
     45 H17          5.9910     8.1100    -0.9870 hc         1 OYP       0.077700
     46 H17A         4.0700     8.2000    -0.5520 hc         1 OYP       0.077700
     47 H18          3.8800    10.1270    -1.4130 hc         1 OYP       0.041700
     48 H18A         5.3970    10.2000    -2.2390 hc         1 OYP       0.041700
     49 H19          4.8770    10.0590     0.7390 hc         1 OYP       0.047700
     50 H19A         6.3230    10.1830    -0.0460 hc         1 OYP       0.047700
     51 H20          4.5970    12.5690    -0.4980 hc         1 OYP       0.034200
     52 H20A         6.1190    12.4230    -0.8520 hc         1 OYP       0.034200
     53 H21          7.0480    12.3400     1.1450 hc         1 OYP       0.021700
     54 H21A         5.8290    12.3490     1.8510 hc         1 OYP       0.021700
     55 H22          5.2310    14.5470     0.8740 hc         1 OYP       0.073200
     56 H22A         7.1130    14.4150     0.2120 hc         1 OYP       0.073200
     57 H23          6.6440    14.3910     3.2050 hc         1 OYP       0.021033
     58 H23A         7.0000    15.6290     2.2080 hc         1 OYP       0.021033
     59 H23B         7.9310    14.3590     2.2880 hc         1 OYP       0.021033
@<TRIPOS>BOND
     1     9     1 ar
     2     1     3 ar
     3     1    27 1
     4     2    12 1
     5    13     3 1
     6     3     5 ar
     7     4    12 1
     8     7     5 ar
     9     5    28 1
    10    13     6 1
    11     6    14 1
    12     8     7 ar
    13     7    29 1
    14     9     8 ar
    15     8    10 1
    16     9    30 1
    17    11    10 1
    18    10    31 1
    19    10    32 1
    20    12    11 1
    21    11    33 1
    22    11    34 1
    23    13    35 1
    24    13    36 1
    25    14    15 1
    26    14    37 1
    27    14    38 1
    28    15    16 3
    29    16    17 1
    30    18    17 1
    31    17    39 1
    32    17    40 1
    33    19    18 1
    34    18    41 1
    35    18    42 1
    36    20    19 1
    37    19    43 1
    38    19    44 1
    39    21    20 1
    40    20    45 1
    41    20    46 1
    42    22    21 1
    43    21    47 1
    44    21    48 1
    45    23    22 1
    46    22    49 1
    47    22    50 1
    48    24    23 1
    49    23    51 1
    50    23    52 1
    51    24    25 1
    52    24    53 1
    53    24    54 1
    54    26    25 1
    55    25    55 1
    56    25    56 1
    57    26    57 1
    58    26    58 1
    59    26    59 1
@<TRIPOS>SUBSTRUCTURE
     1 OYP         1 TEMP              0 ****  ****    0 ROOT
