@<TRIPOS>MOLECULE
OYQ
   40    40     1     0     0
SMALL
bcc


@<TRIPOS>ATOM
      1 CAA          0.0000     0.0000     0.0000 c3         1 OYQ      -0.001100
      2 CAB          1.6340     1.3070     2.1270 c3         1 OYQ      -0.012100
      3 NAC         12.7770    -1.8850     3.3390 nz         1 OYQ      -0.205500
      4 OAD          6.1760    -0.3620     1.8400 o          1 OYQ      -0.615100
      5 OAE         12.6660    -0.3750     5.4820 o          1 OYQ      -0.436800
      6 OAF         12.6870     0.7320     3.5080 o          1 OYQ      -0.436800
      7 CAG          8.3340     0.2590     3.1400 ca         1 OYQ      -0.129500
      8 CAH          8.3160    -1.2610     5.0020 ca         1 OYQ      -0.129500
      9 CAI          9.7150     0.2530     3.1540 ca         1 OYQ       0.015500
     10 CAJ          9.6970    -1.2710     5.0030 ca         1 OYQ       0.015500
     11 CAK          1.5300     0.0000     0.0000 c3         1 OYQ      -0.022400
     12 CAM          3.5640    -0.1250     1.4450 c3         1 OYQ      -0.020400
     13 NAN          6.2300    -0.4970     4.0550 ns         1 OYQ      -0.053100
     14 CAO          5.5660    -0.3740     2.8880 c          1 OYQ       0.572100
     15 CAP          7.6290    -0.5000     4.0650 ca         1 OYQ       0.020600
     16 CAQ         10.3960    -0.5110     4.0840 ca         1 OYQ      -0.158500
     17 CAR          2.0390     0.0000     1.4430 c3         1 OYQ      -0.055700
     18 SAS         12.1580    -0.4920     4.1130 sy         1 OYQ       0.744200
     19 HAA         -0.3610     0.8890     0.5020 hc         1 OYQ       0.006700
     20 HAAA        -0.3610    -0.8800     0.5190 hc         1 OYQ       0.006700
     21 HAB          0.6190     1.5620     1.8470 hc         1 OYQ       0.009367
     22 HABA         1.6930     1.1850     3.2020 hc         1 OYQ       0.009367
     23 HABB         2.3040     2.1000     1.8160 hc         1 OYQ       0.009367
     24 HNAC        12.4120    -1.9400     2.4090 hn         1 OYQ       0.333800
     25 HNAA        12.5070    -2.7000     3.8520 hn         1 OYQ       0.333800
     26 HAG          7.8030     0.8890     2.4380 ha         1 OYQ       0.149500
     27 HAH          7.7700    -1.8370     5.7390 ha         1 OYQ       0.149500
     28 HAI         10.2670     0.8260     2.4180 ha         1 OYQ       0.129000
     29 HAJ         10.0340    -1.9340     5.7910 ha         1 OYQ       0.129000
     30 HAK          1.8910    -0.8840    -0.5110 hc         1 OYQ       0.016200
     31 HAL          3.7210    -1.1870     3.3070 hc         1 OYQ       0.041700
     32 HALA         3.6780     0.5730     3.4750 hc         1 OYQ       0.041700
     33 HAM          4.0060     0.8440     1.2460 hc         1 OYQ       0.033700
     34 HAMA         3.8700    -0.8260     0.6780 hc         1 OYQ       0.033700
     35 HNAN         5.7480    -0.3620     4.9210 hn         1 OYQ       0.190500
     36 HAR          1.6070    -0.8370     1.9790 hc         1 OYQ       0.029700
     37 H19         -0.3610    -0.0090    -1.0210 hc         1 OYQ       0.006700
     38 H20          1.8910     0.8840    -0.5110 hc         1 OYQ       0.016200
     39 HAC3        13.5110    -2.2770     3.8950 hn         1 OYQ       0.333800
     40 CAL          4.0640    -0.2500     2.8860 c3         1 OYQ      -0.099400
@<TRIPOS>BOND
     1     1    11 1   
     2     1    19 1   
     3     1    20 1   
     4     1    37 1   
     5     2    17 1   
     6     2    21 1   
     7     2    22 1   
     8     2    23 1   
     9     3    18 1   
    10     3    24 1   
    11     3    25 1   
    12     3    39 1   
    13     4    14 2   
    14     5    18 2   
    15     6    18 2   
    16     7     9 ar  
    17     7    15 ar  
    18     7    26 1   
    19     8    10 ar  
    20     8    15 ar  
    21     8    27 1   
    22     9    16 ar  
    23     9    28 1   
    24    10    16 ar  
    25    10    29 1   
    26    11    17 1   
    27    11    30 1   
    28    11    38 1   
    29    12    17 1   
    30    12    33 1   
    31    12    34 1   
    32    12    40 1   
    33    13    14 1   
    34    13    15 1   
    35    13    35 1   
    36    14    40 1   
    37    16    18 1   
    38    17    36 1   
    39    31    40 1   
    40    32    40 1   
@<TRIPOS>SUBSTRUCTURE
     1 OYQ         1 TEMP              0 ****  ****    0 ROOT
