@<TRIPOS>MOLECULE
OYS
   35    36     1     0     0
SMALL
bcc


@<TRIPOS>ATOM
      1 NAA          0.0000     0.0000     0.0000 nz         1 OYS      -0.134500
      2 OAB          4.6720     5.6190    -0.4890 o          1 OYS      -0.589100
      3 OAC          2.0570     0.0000     1.3630 o          1 OYS      -0.497300
      4 OAD          2.0580    -0.9970    -0.9290 o          1 OYS      -0.497300
      5 CAE          7.1730     9.3220     0.6960 ca         1 OYS      -0.084000
      6 CAF          7.7010     8.5470    -0.3190 ca         1 OYS      -0.091000
      7 CAG          5.8030     9.4640     0.8180 ca         1 OYS      -0.091000
      8 CAH          6.8590     7.9140    -1.2140 ca         1 OYS      -0.083500
      9 CAI          4.9620     8.8370    -0.0810 ca         1 OYS      -0.083500
     10 CAJ          2.7910     3.8370    -0.3590 ca         1 OYS      -0.142500
     11 CAK          2.7810     2.8810    -2.5650 ca         1 OYS      -0.142500
     12 CAL          2.3810     2.6270     0.1640 ca         1 OYS       0.037000
     13 CAM          2.3830     1.6700    -2.0330 ca         1 OYS       0.037000
     14 CAN          4.5710     7.3680    -2.0700 c3         1 OYS      -0.026100
     15 CAP          4.2210     5.9970    -1.5490 c          1 OYS       0.563100
     16 CAQ          5.4890     8.0570    -1.0940 ca         1 OYS      -0.097300
     17 CAR          2.9910     3.9680    -1.7270 ca         1 OYS       0.028600
     18 CAS          2.1770     1.5440    -0.6720 ca         1 OYS      -0.258500
     19 SAT          1.6570     0.0000     0.0000 sy         1 OYS       0.934200
     20 HNAA        -0.3340    -0.8650     0.3770 hn         1 OYS       0.312133
     21 HNAB        -0.3340     0.7590     0.5610 hn         1 OYS       0.312133
     22 HAG          5.3900    10.0730     1.6120 ha         1 OYS       0.108000
     23 HAH          7.2720     7.3050    -2.0090 ha         1 OYS       0.100000
     24 HAI          3.8890     8.9480     0.0130 ha         1 OYS       0.100000
     25 HAJ          2.9520     4.6840     0.2960 ha         1 OYS       0.149000
     26 HAK          2.9380     2.9790    -3.6320 ha         1 OYS       0.149000
     27 HAL          2.2220     2.5240     1.2310 ha         1 OYS       0.124500
     28 HAM          2.2200     0.8200    -2.6860 ha         1 OYS       0.124500
     29 HAN          3.6660     7.9520    -2.1880 hc         1 OYS       0.037700
     30 HANA         5.0670     7.2740    -3.0280 hc         1 OYS       0.037700
     31 HAE          7.8330     9.8160     1.3990 ha         1 OYS       0.108000
     32 HAA3        -0.3340     0.1150    -0.9370 hn         1 OYS       0.312133
     33 NAO          3.4050     5.1940    -2.2600 ns         1 OYS      -0.050100
     34 HAF          8.7750     8.4360    -0.4140 ha         1 OYS       0.108000
     35 HNAO         3.0820     5.4820    -3.1630 hn         1 OYS       0.185500
@<TRIPOS>BOND
     1     1    19 1   
     2     1    20 1   
     3     1    21 1   
     4     1    32 1   
     5     2    15 2   
     6     3    19 2   
     7     4    19 2   
     8     5     6 ar  
     9     5     7 ar  
    10     5    31 1   
    11     6     8 ar  
    12     6    34 1   
    13     7     9 ar  
    14     7    22 1   
    15     8    16 ar  
    16     8    23 1   
    17     9    16 ar  
    18     9    24 1   
    19    10    12 ar  
    20    10    17 ar  
    21    10    25 1   
    22    11    13 ar  
    23    11    17 ar  
    24    11    26 1   
    25    12    18 ar  
    26    12    27 1   
    27    13    18 ar  
    28    13    28 1   
    29    14    15 1   
    30    14    16 1   
    31    14    29 1   
    32    14    30 1   
    33    15    33 1   
    34    17    33 1   
    35    18    19 1   
    36    33    35 1   
@<TRIPOS>SUBSTRUCTURE
     1 OYS         1 TEMP              0 ****  ****    0 ROOT
