@<TRIPOS>MOLECULE
OZ2
  116   115     1     0     0
SMALL
bcc


@<TRIPOS>ATOM
      1 P           0.6760   -2.9420   -1.2560 p5        1 OZ2      1.431800
      2 C1          4.0290   -0.4550   -2.9040 c         1 OZ2      0.649100
      3 O1          4.9650   -1.0290   -3.4700 o         1 OZ2     -0.580000
      4 C2          3.0180    0.4960   -3.4590 c3        1 OZ2     -0.141400
      5 C3          3.3700    0.9340   -4.8630 c3        1 OZ2     -0.069400
      6 C4          2.2780    1.8150   -5.4320 c3        1 OZ2     -0.090400
      7 C5          2.5650    2.1770   -6.8730 c3        1 OZ2     -0.074400
      8 C6          1.4720    3.0550   -7.4450 c3        1 OZ2     -0.080400
      9 C7          1.7580    3.4210   -8.8860 c3        1 OZ2     -0.076400
     10 C8          0.6580    4.2910   -9.4580 c3        1 OZ2     -0.052200
     11 C9          0.9150    4.6750  -10.8650 c2        1 OZ2     -0.164200
     12 C10         0.0800    5.4190  -11.5980 c2        1 OZ2     -0.185200
     13 C11        -1.2080    5.9480  -11.0910 c3        1 OZ2     -0.047200
     14 C12        -1.9340    6.7820  -12.1260 c3        1 OZ2     -0.076400
     15 C13        -3.2450    7.3090  -11.5810 c3        1 OZ2     -0.080400
     16 C14        -3.9730    8.1430  -12.6130 c3        1 OZ2     -0.078400
     17 C15        -5.2840    8.6690  -12.0690 c3        1 OZ2     -0.079400
     18 C16        -6.0130    9.5030  -13.1010 c3        1 OZ2     -0.078400
     19 C17        -7.3240   10.0290  -12.5580 c3        1 OZ2     -0.080400
     20 C18        -8.0540   10.8600  -13.5810 c3        1 OZ2     -0.092100
     21 C1B         3.6400   -0.7870    2.3730 c         1 OZ2      0.642100
     22 O1B         3.9790   -1.7770    3.0290 o         1 OZ2     -0.572000
     23 C1G         4.5850   -1.7540   -0.9910 c3        1 OZ2      0.144400
     24 O1G         3.8410   -0.6790   -1.5680 os        1 OZ2     -0.400900
     25 C2B         3.1140    0.5220    2.8780 c3        1 OZ2     -0.132400
     26 C2G         3.9920   -2.0710    0.3800 c3        1 OZ2      0.129100
     27 O2G         3.7450   -0.8040    1.0160 os        1 OZ2     -0.398900
     28 C3B         3.6160    0.8160    4.2750 c3        1 OZ2     -0.078400
     29 C3G         2.7240   -2.9360    0.3570 c3        1 OZ2      0.161400
     30 O3G         1.6080   -2.2410   -0.0890 os        1 OZ2     -0.554200
     31 C4B         2.9700    2.0670    4.8290 c3        1 OZ2     -0.077400
     32 C5B         3.4810    2.3700    6.2220 c3        1 OZ2     -0.051200
     33 C6B         2.8700    3.5940    6.7930 c2        1 OZ2     -0.164200
     34 C7B         3.1890    4.0930    7.9920 c2        1 OZ2     -0.185200
     35 C8B         4.1950    3.4850    8.8940 c3        1 OZ2     -0.047200
     36 C9B         4.3240    4.2380   10.2020 c3        1 OZ2     -0.076400
     37 CB0         5.3550    3.5940   11.1040 c3        1 OZ2     -0.080400
     38 CB1         5.4870    4.3440   12.4110 c3        1 OZ2     -0.078400
     39 CB2         6.5190    3.7010   13.3140 c3        1 OZ2     -0.080400
     40 CB3         6.6540    4.4450   14.6170 c3        1 OZ2     -0.092100
     41 CG1        -0.0810   -1.6010   -3.3510 c3        1 OZ2      0.200400
     42 CG2        -0.6690   -0.2040   -3.0710 c3        1 OZ2      0.076100
     43 OG2        -0.6690    0.5070   -4.3070 oh        1 OZ2     -0.623800
     44 CG3        -2.0850   -0.3020   -2.4990 c3        1 OZ2      0.071400
     45 OG3        -2.5530    0.9890   -2.1360 oh        1 OZ2     -0.631800
     46 OP1        -0.7390   -2.7130   -0.9000 o         1 OZ2     -0.830000
     47 OP2         1.2900   -4.2360   -1.6050 o         1 OZ2     -0.830000
     48 OP3         0.9780   -1.8740   -2.4910 os        1 OZ2     -0.576200
     49 H2          2.9300    1.3780   -2.7740 hc        1 OZ2      0.100200
     50 H2A         2.0220   -0.0420   -3.4460 hc        1 OZ2      0.100200
     51 H3          4.3460    1.4860   -4.8570 hc        1 OZ2      0.045200
     52 H3A         3.5090    0.0280   -5.5100 hc        1 OZ2      0.045200
     53 H4          2.1940    2.7510   -4.8190 hc        1 OZ2      0.053700
     54 H4A         1.2900    1.2820   -5.3590 hc        1 OZ2      0.053700
     55 H5          2.6510    1.2400   -7.4850 hc        1 OZ2      0.035700
     56 H5A         3.5500    2.7080   -6.9410 hc        1 OZ2      0.035700
     57 H6          1.3810    3.9890   -6.8300 hc        1 OZ2      0.041200
     58 H6A         0.4890    2.5180   -7.3790 hc        1 OZ2      0.041200
     59 H7          2.7380    3.9630   -8.9490 hc        1 OZ2      0.039200
     60 H7A         1.8560    2.4870   -9.4980 hc        1 OZ2      0.039200
     61 H8          0.5490    5.2200   -8.8320 hc        1 OZ2      0.048700
     62 H8A        -0.3240    3.7450   -9.3920 hc        1 OZ2      0.048700
     63 H9          1.8590    4.3070  -11.3000 ha        1 OZ2      0.120000
     64 H10         0.3280    5.6710  -12.6420 ha        1 OZ2      0.116000
     65 H11        -1.0210    6.5690  -10.1710 hc        1 OZ2      0.048700
     66 H11A       -1.8630    5.0910  -10.7710 hc        1 OZ2      0.048700
     67 H12        -1.2850    7.6410  -12.4400 hc        1 OZ2      0.038700
     68 H12A       -2.1290    6.1620  -13.0400 hc        1 OZ2      0.038700
     69 H13        -3.8940    6.4490  -11.2670 hc        1 OZ2      0.041200
     70 H13A       -3.0500    7.9280  -10.6660 hc        1 OZ2      0.041200
     71 H14        -3.3240    9.0030  -12.9280 hc        1 OZ2      0.038200
     72 H14A       -4.1670    7.5240  -13.5290 hc        1 OZ2      0.038200
     73 H15        -5.9320    7.8090  -11.7550 hc        1 OZ2      0.040200
     74 H15A       -5.0900    9.2880  -11.1540 hc        1 OZ2      0.040200
     75 H16        -5.3640   10.3630  -13.4150 hc        1 OZ2      0.038200
     76 H16A       -6.2070    8.8840  -14.0160 hc        1 OZ2      0.038200
     77 H17        -7.9700    9.1670  -12.2430 hc        1 OZ2      0.039200
     78 H17A       -7.1280   10.6460  -11.6410 hc        1 OZ2      0.039200
     79 H18        -9.0170   11.2380  -13.1610 hc        1 OZ2      0.031033
     80 H18A       -8.2800   10.2550  -14.4920 hc        1 OZ2      0.031033
     81 H18B       -7.4360   11.7380  -13.8890 hc        1 OZ2      0.031033
     82 H1G         5.6530   -1.4240   -0.8930 h1        1 OZ2      0.053700
     83 H1GA        4.5240   -2.6600   -1.6500 h1        1 OZ2      0.053700
     84 H2B         3.4070    1.3410    2.1690 hc        1 OZ2      0.081700
     85 H2BA        1.9930    0.4500    2.8670 hc        1 OZ2      0.081700
     86 H2G         4.7760   -2.6310    0.9700 h1        1 OZ2      0.055700
     87 H3B         4.7310    0.9400    4.2550 hc        1 OZ2      0.053200
     88 H3BA        3.3940   -0.0600    4.9410 hc        1 OZ2      0.053200
     89 H3G         2.5390   -3.2510    1.4280 h1        1 OZ2      0.052700
     90 H3GA        2.9180   -3.8460   -0.2800 h1        1 OZ2      0.052700
     91 H4B         1.8560    1.9360    4.8560 hc        1 OZ2      0.042200
     92 H4BA        3.1840    2.9350    4.1510 hc        1 OZ2      0.042200
     93 H5B         3.2660    1.4960    6.8980 hc        1 OZ2      0.049200
     94 H5BA        4.5990    2.4870    6.1950 hc        1 OZ2      0.049200
     95 H6B         2.1120    4.0920    6.1660 ha        1 OZ2      0.122000
     96 H7B         2.6970    5.0070    8.3630 ha        1 OZ2      0.118000
     97 H8B         5.1930    3.4580    8.3760 hc        1 OZ2      0.048200
     98 H8BA        3.9130    2.4160    9.1010 hc        1 OZ2      0.048200
     99 H9B         4.6140    5.3020    9.9970 hc        1 OZ2      0.039200
    100 H9BA        3.3300    4.2600   10.7230 hc        1 OZ2      0.039200
    101 HB0         6.3480    3.5700   10.5820 hc        1 OZ2      0.040200
    102 HB0A        5.0640    2.5300   11.3080 hc        1 OZ2      0.040200
    103 HB1         5.7790    5.4080   12.2070 hc        1 OZ2      0.038200
    104 HB1A        4.4950    4.3680   12.9330 hc        1 OZ2      0.038200
    105 HB2         7.5110    3.6770   12.7890 hc        1 OZ2      0.039200
    106 HB2A        6.2260    2.6370   13.5160 hc        1 OZ2      0.039200
    107 HB3         7.4190    3.9550   15.2670 hc        1 OZ2      0.030700
    108 HB3A        6.9690    5.5020   14.4380 hc        1 OZ2      0.030700
    109 HB3B        5.6810    4.4590   15.1660 hc        1 OZ2      0.030700
    110 HG1         0.3190   -1.6150   -4.4040 h1        1 OZ2      0.038200
    111 HG1A       -0.8870   -2.3790   -3.2420 h1        1 OZ2      0.038200
    112 HG2        -0.0070    0.3510   -2.3470 h1        1 OZ2      0.048700
    113 HOG2       -1.2630    1.2580   -4.1860 ho        1 OZ2      0.398000
    114 HG3        -2.8030   -0.6510   -3.2870 h1        1 OZ2      0.086700
    115 HG3A       -2.0990   -1.0070   -1.6230 h1        1 OZ2      0.086700
    116 HOG3       -2.0880    1.2330   -1.3270 ho        1 OZ2      0.397000
@<TRIPOS>BOND
     1    1   30 1   
     2    1   46 1   
     3    1   47 1   
     4    1   48 1   
     5    2    3 2   
     6    2    4 1   
     7    2   24 1   
     8    4    5 1   
     9    4   49 1   
    10    4   50 1   
    11    5    6 1   
    12    5   51 1   
    13    5   52 1   
    14    6    7 1   
    15    6   53 1   
    16    6   54 1   
    17    7    8 1   
    18    7   55 1   
    19    7   56 1   
    20    8    9 1   
    21    8   57 1   
    22    8   58 1   
    23    9   10 1   
    24    9   59 1   
    25    9   60 1   
    26   10   11 1   
    27   10   61 1   
    28   10   62 1   
    29   11   12 2   
    30   11   63 1   
    31   12   13 1   
    32   12   64 1   
    33   13   14 1   
    34   13   65 1   
    35   13   66 1   
    36   14   15 1   
    37   14   67 1   
    38   14   68 1   
    39   15   16 1   
    40   15   69 1   
    41   15   70 1   
    42   16   17 1   
    43   16   71 1   
    44   16   72 1   
    45   17   18 1   
    46   17   73 1   
    47   17   74 1   
    48   18   19 1   
    49   18   75 1   
    50   18   76 1   
    51   19   20 1   
    52   19   77 1   
    53   19   78 1   
    54   20   79 1   
    55   20   80 1   
    56   20   81 1   
    57   21   22 2   
    58   21   25 1   
    59   21   27 1   
    60   23   24 1   
    61   23   26 1   
    62   23   82 1   
    63   23   83 1   
    64   25   28 1   
    65   25   84 1   
    66   25   85 1   
    67   26   27 1   
    68   26   29 1   
    69   26   86 1   
    70   28   31 1   
    71   28   87 1   
    72   28   88 1   
    73   29   30 1   
    74   29   89 1   
    75   29   90 1   
    76   31   32 1   
    77   31   91 1   
    78   31   92 1   
    79   32   33 1   
    80   32   93 1   
    81   32   94 1   
    82   33   34 2   
    83   33   95 1   
    84   34   35 1   
    85   34   96 1   
    86   35   36 1   
    87   35   97 1   
    88   35   98 1   
    89   36   37 1   
    90   36   99 1   
    91   36  100 1   
    92   37   38 1   
    93   37  101 1   
    94   37  102 1   
    95   38   39 1   
    96   38  103 1   
    97   38  104 1   
    98   39   40 1   
    99   39  105 1   
   100   39  106 1   
   101   40  107 1   
   102   40  108 1   
   103   40  109 1   
   104   41   42 1   
   105   41   48 1   
   106   41  110 1   
   107   41  111 1   
   108   42   43 1   
   109   42   44 1   
   110   42  112 1   
   111   43  113 1   
   112   44   45 1   
   113   44  114 1   
   114   44  115 1   
   115   45  116 1   
@<TRIPOS>SUBSTRUCTURE
     1 OZ2         1 TEMP              0 ****  ****    0 ROOT
