@<TRIPOS>MOLECULE
molecule
  116   115     1     0     0
SMALL
bcc


@<TRIPOS>ATOM
      1 P            0.0000     0.0000     0.0000 p5         1 OZ2       1.366800
      2 C1           3.4430     0.5630    -2.9550 c          1 OZ2       0.634100
      3 O1           4.2680    -0.0680    -3.5740 o          1 OZ2      -0.594000
      4 C2           2.5700     1.5640    -3.6680 c3         1 OZ2      -0.127400
      5 C3           2.9290     1.5870    -5.1550 c3         1 OZ2      -0.070400
      6 C4           2.0430     2.6040    -5.8780 c3         1 OZ2      -0.084400
      7 C5           2.4020     2.6260    -7.3640 c3         1 OZ2      -0.078400
      8 C6           1.5160     3.6420    -8.0870 c3         1 OZ2      -0.091400
      9 C7           1.8750     3.6660    -9.5750 c3         1 OZ2      -0.097400
     10 C8           0.9890     4.6820   -10.2980 c3         1 OZ2       0.066800
     11 C9           1.3430     4.7050   -11.7620 c2         1 OZ2      -0.230200
     12 C10          0.4050     4.5570   -12.6650 c2         1 OZ2      -0.247200
     13 C11         -1.0440     4.5350   -12.2490 c3         1 OZ2       0.066800
     14 C12         -1.8210     5.5760   -13.0570 c3         1 OZ2      -0.097400
     15 C13         -3.2930     5.5530   -12.6350 c3         1 OZ2      -0.091400
     16 C14         -4.0710     6.5940   -13.4420 c3         1 OZ2      -0.079400
     17 C15         -5.5410     6.5720   -13.0200 c3         1 OZ2      -0.082400
     18 C16         -6.3190     7.6130   -13.8270 c3         1 OZ2      -0.081400
     19 C17         -7.7900     7.5900   -13.4070 c3         1 OZ2      -0.084400
     20 C18         -8.5680     8.6310   -14.2130 c3         1 OZ2      -0.092100
     21 C1B          4.6040     0.5360     2.3940 c          1 OZ2       0.634100
     22 O1B          4.6670    -0.5240     2.9730 o          1 OZ2      -0.573000
     23 C1G          4.1780    -0.6080    -1.0150 c3         1 OZ2       0.161400
     24 O1G          3.3040     0.3710    -1.6340 os         1 OZ2      -0.357900
     25 C2B          4.9670     1.8100     3.1130 c3         1 OZ2      -0.125400
     26 C2G          3.8750    -0.6880     0.4830 c3         1 OZ2       0.138100
     27 O2G          4.2100     0.5780     1.1120 os         1 OZ2      -0.398900
     28 C3B          5.3780     1.4840     4.5510 c3         1 OZ2      -0.081400
     29 C3G          2.3880    -0.9810     0.6870 c3         1 OZ2       0.215400
     30 O3G          1.6100     0.0000     0.0000 os         1 OZ2      -0.582200
     31 C4B          5.7470     2.7770     5.2810 c3         1 OZ2      -0.099400
     32 C5B          6.1580     2.4510     6.7190 c3         1 OZ2       0.067800
     33 C6B          6.5220     3.7260     7.4380 c2         1 OZ2      -0.231200
     34 C7B          5.9640     4.0100     8.5880 c2         1 OZ2      -0.248200
     35 C8B          5.0930     2.9900     9.2750 c3         1 OZ2       0.067800
     36 C9B          5.5930     2.7720    10.7040 c3         1 OZ2      -0.097400
     37 CB0          4.7070     1.7370    11.4020 c3         1 OZ2      -0.091400
     38 CB1          5.2080     1.5180    12.8310 c3         1 OZ2      -0.079400
     39 CB2          4.3220     0.4830    13.5290 c3         1 OZ2      -0.084400
     40 CB3          4.8230     0.2650    14.9570 c3         1 OZ2      -0.092100
     41 CG1         -1.9220     1.6570    -0.8380 c3         1 OZ2       0.239400
     42 CG2         -2.0820     2.9590    -1.6250 c3         1 OZ2       0.143100
     43 OG2         -1.6680     2.7520    -2.9770 oh         1 OZ2      -0.589800
     44 CG3         -3.5500     3.3920    -1.6030 c3         1 OZ2       0.095400
     45 OG3         -3.6800     4.6650    -2.2380 oh         1 OZ2      -0.625800
     46 OP1         -0.4940     0.0000     1.3950 o          1 OZ2      -0.827500
     47 OP2         -0.5360    -1.3150    -0.7600 o          1 OZ2      -0.827500
     48 OP3         -0.5370     1.3140    -0.7590 os         1 OZ2      -0.594200
     49 H2           1.5300     1.2840    -3.5520 hc         1 OZ2       0.085200
     50 H2A          2.7280     2.5480    -3.2430 hc         1 OZ2       0.085200
     51 H3           2.7700     0.6030    -5.5800 hc         1 OZ2       0.051200
     52 H3A          3.9690     1.8670    -5.2710 hc         1 OZ2       0.051200
     53 H4           2.2020     3.5880    -5.4530 hc         1 OZ2       0.044700
     54 H4A          1.0030     2.3240    -5.7620 hc         1 OZ2       0.044700
     55 H5           2.2440     1.6420    -7.7890 hc         1 OZ2       0.042200
     56 H5A          3.4420     2.9070    -7.4800 hc         1 OZ2       0.042200
     57 H6           1.6740     4.6260    -7.6620 hc         1 OZ2       0.039700
     58 H6A          0.4760     3.3620    -7.9710 hc         1 OZ2       0.039700
     59 H7           2.9150     3.9470    -9.6910 hc         1 OZ2       0.054200
     60 H7A          1.7170     2.6830   -10.0000 hc         1 OZ2       0.054200
     61 H8           1.1470     5.6660    -9.8730 hc         1 OZ2       0.044200
     62 H8A         -0.0510     4.4020   -10.1820 hc         1 OZ2       0.044200
     63 H9           0.9910     5.5980   -11.2590 ha         1 OZ2       0.071000
     64 H10         -0.0600     3.6440   -12.3150 ha         1 OZ2       0.073000
     65 H11         -1.4570     3.5510   -12.4350 hc         1 OZ2       0.045700
     66 H11A        -1.1200     4.7650   -11.1940 hc         1 OZ2       0.045700
     67 H12         -1.4080     6.5590   -12.8710 hc         1 OZ2       0.052700
     68 H12A        -1.7440     5.3450   -14.1120 hc         1 OZ2       0.052700
     69 H13         -3.3690     5.7830   -11.5800 hc         1 OZ2       0.040700
     70 H13A        -3.7060     4.5690   -12.8210 hc         1 OZ2       0.040700
     71 H14         -3.9950     6.3640   -14.4980 hc         1 OZ2       0.041700
     72 H14A        -3.6570     7.5780   -13.2570 hc         1 OZ2       0.041700
     73 H15         -5.9550     5.5880   -13.2060 hc         1 OZ2       0.042200
     74 H15A        -5.6170     6.8020   -11.9650 hc         1 OZ2       0.042200
     75 H16         -5.9060     8.5970   -13.6410 hc         1 OZ2       0.040200
     76 H16A        -6.2420     7.3830   -14.8830 hc         1 OZ2       0.040200
     77 H17         -8.2030     6.6060   -13.5930 hc         1 OZ2       0.040200
     78 H17A        -7.8670     7.8200   -12.3510 hc         1 OZ2       0.040200
     79 H18         -8.1550     9.6150   -14.0240 hc         1 OZ2       0.031367
     80 H18A        -9.6090     8.6130   -13.9160 hc         1 OZ2       0.031367
     81 H18B        -8.4890     8.4030   -15.2690 hc         1 OZ2       0.031367
     82 H1G          4.0130    -1.5780    -1.4690 h1         1 OZ2       0.048200
     83 H1GA         5.2110    -0.3140    -1.1590 h1         1 OZ2       0.048200
     84 H2B          4.1120     2.4750     3.1240 hc         1 OZ2       0.072700
     85 H2BA         5.7920     2.2900     2.6020 hc         1 OZ2       0.072700
     86 H2G          4.4650    -1.4800     0.9290 h1         1 OZ2       0.070700
     87 H3B          6.2330     0.8180     4.5400 hc         1 OZ2       0.055200
     88 H3BA         4.5530     1.0030     5.0620 hc         1 OZ2       0.055200
     89 H3G          2.1560    -0.9500     1.7450 h1         1 OZ2       0.044700
     90 H3GA         2.1570    -1.9650     0.2960 h1         1 OZ2       0.044700
     91 H4B          4.8920     3.4420     5.2920 hc         1 OZ2       0.053700
     92 H4BA         6.5730     3.2580     4.7700 hc         1 OZ2       0.053700
     93 H5B          7.0130     1.7860     6.7080 hc         1 OZ2       0.046700
     94 H5BA         5.3330     1.9700     7.2300 hc         1 OZ2       0.046700
     95 H6B          7.0090     2.7890     7.6820 ha         1 OZ2       0.070000
     96 H7B          4.9180     3.9060     8.3290 ha         1 OZ2       0.075000
     97 H8B          4.0700     3.3480     9.3010 hc         1 OZ2       0.046700
     98 H8BA         5.1340     2.0550     8.7300 hc         1 OZ2       0.046700
     99 H9B          5.5520     3.7080    11.2480 hc         1 OZ2       0.052200
    100 H9BA         6.6150     2.4140    10.6780 hc         1 OZ2       0.052200
    101 HB0          3.6850     2.0960    11.4290 hc         1 OZ2       0.041200
    102 HB0A         4.7470     0.8020    10.8580 hc         1 OZ2       0.041200
    103 HB1          6.2300     1.1590    12.8050 hc         1 OZ2       0.040700
    104 HB1A         5.1680     2.4530    13.3760 hc         1 OZ2       0.040700
    105 HB2          3.3000     0.8420    13.5550 hc         1 OZ2       0.041200
    106 HB2A         4.3620    -0.4520    12.9840 hc         1 OZ2       0.041200
    107 HB3          5.8450    -0.0940    14.9310 hc         1 OZ2       0.031033
    108 HB3A         4.7830     1.2010    15.5010 hc         1 OZ2       0.031033
    109 HB3B         4.1960    -0.4670    15.4520 hc         1 OZ2       0.031033
    110 HG1         -2.4630     0.8630    -1.3390 h1         1 OZ2       0.039200
    111 HG1A        -2.3180     1.7890     0.1620 h1         1 OZ2       0.039200
    112 HG2         -1.4700     3.7310    -1.1740 h1         1 OZ2       0.045700
    113 HOG2        -1.6950     3.5710    -3.4430 ho         1 OZ2       0.392000
    114 HG3         -3.8900     3.4630    -0.5770 h1         1 OZ2       0.030700
    115 HG3A        -4.1500     2.6610    -2.1320 h1         1 OZ2       0.030700
    116 HOG3        -4.5260     5.0300    -2.0380 ho         1 OZ2       0.395000
@<TRIPOS>BOND
     1    46     1 1
     2     1    48 1
     3     1    47 1
     4     1    30 1
     5    24     2 1
     6     4     2 1
     7     2     3 2
     8     5     4 1
     9     4    49 1
    10     4    50 1
    11     5     6 1
    12     5    51 1
    13     5    52 1
    14     7     6 1
    15     6    53 1
    16     6    54 1
    17     7     8 1
    18     7    55 1
    19     7    56 1
    20     9     8 1
    21     8    57 1
    22     8    58 1
    23     9    10 1
    24     9    59 1
    25     9    60 1
    26    11    10 1
    27    10    61 1
    28    10    62 1
    29    11    12 2
    30    11    63 1
    31    12    13 1
    32    12    64 1
    33    13    14 1
    34    13    65 1
    35    13    66 1
    36    15    14 1
    37    14    67 1
    38    14    68 1
    39    15    16 1
    40    15    69 1
    41    15    70 1
    42    17    16 1
    43    16    71 1
    44    16    72 1
    45    17    18 1
    46    17    73 1
    47    17    74 1
    48    18    19 1
    49    18    75 1
    50    18    76 1
    51    19    20 1
    52    19    77 1
    53    19    78 1
    54    20    79 1
    55    20    80 1
    56    20    81 1
    57    27    21 1
    58    21    22 2
    59    21    25 1
    60    24    23 1
    61    23    26 1
    62    23    82 1
    63    23    83 1
    64    28    25 1
    65    25    84 1
    66    25    85 1
    67    26    29 1
    68    26    27 1
    69    26    86 1
    70    28    31 1
    71    28    87 1
    72    28    88 1
    73    30    29 1
    74    29    89 1
    75    29    90 1
    76    32    31 1
    77    31    91 1
    78    31    92 1
    79    32    33 1
    80    32    93 1
    81    32    94 1
    82    33    34 2
    83    33    95 1
    84    35    34 1
    85    34    96 1
    86    35    36 1
    87    35    97 1
    88    35    98 1
    89    36    37 1
    90    36    99 1
    91    36   100 1
    92    37    38 1
    93    37   101 1
    94    37   102 1
    95    38    39 1
    96    38   103 1
    97    38   104 1
    98    39    40 1
    99    39   105 1
   100    39   106 1
   101    40   107 1
   102    40   108 1
   103    40   109 1
   104    42    41 1
   105    41    48 1
   106    41   110 1
   107    41   111 1
   108    44    42 1
   109    43    42 1
   110    42   112 1
   111    43   113 1
   112    44    45 1
   113    44   114 1
   114    44   115 1
   115    45   116 1
@<TRIPOS>SUBSTRUCTURE
     1 OZ2         1 TEMP              0 ****  ****    0 ROOT
