@<TRIPOS>MOLECULE
OZJ
   31    33     1     0     0
SMALL
bcc


@<TRIPOS>ATOM
      1 OAD          0.0000     0.0000     0.0000 o          1 OZJ      -0.555100
      2 CAF          1.2130     0.0000     0.0000 c          1 OZJ       0.674500
      3 CAP          1.9500     0.0000     1.2730 ca         1 OZJ      -0.218600
      4 CAJ          3.3460     0.0010     1.2740 ca         1 OZJ      -0.050000
      5 CAH          1.2530     0.0060     2.4870 ca         1 OZJ      -0.023000
      6 CAG          1.9440     0.0070     3.6830 ca         1 OZJ      -0.111000
      7 CAI          3.3250     0.0010     3.6910 ca         1 OZJ      -0.047000
      8 CAQ          4.0350     0.0000     2.4860 ca         1 OZJ      -0.053800
      9 CAS          5.5100    -0.0000     2.4980 cc         1 OZJ      -0.172300
     10 NAM          6.3130     0.7880     1.7150 na         1 OZJ       0.291900
     11 C4           7.6350     0.5370     1.9770 ca         1 OZJ       0.323800
     12 N3           8.7760     1.0290     1.4950 nb         1 OZJ      -0.744000
     13 C2           9.9420     0.5940     1.9410 ca         1 OZJ       0.754900
     14 NAB         11.1010     1.1320     1.4110 nv         1 OZJ      -0.499500
     15 N1          10.0420    -0.3420     2.8780 nb         1 OZJ      -0.755000
     16 C6           8.9560    -0.8880     3.4150 ca         1 OZJ       0.627200
     17 NAC          9.0630    -1.8620     4.3910 nv         1 OZJ      -0.558500
     18 C5           7.6990    -0.4550     2.9700 ca         1 OZJ      -0.412400
     19 CAR          6.3090    -0.7940     3.3070 cd         1 OZJ       0.045100
     20 CAE          5.8680    -1.7540     4.2740 ch         1 OZJ       0.239500
     21 NAA          5.5010    -2.5060     5.0420 n1         1 OZJ      -0.408800
     22 HAF          1.7540    -0.0770    -0.9350 h4         1 OZJ      -0.038800
     23 HAJ          3.8890     0.0010     0.3370 ha         1 OZJ       0.104000
     24 HAH          0.1700     0.0110     2.4890 ha         1 OZJ       0.124000
     25 HAG          1.4020     0.0120     4.6210 ha         1 OZJ       0.113000
     26 HAI          3.8610     0.0020     4.6320 ha         1 OZJ       0.117000
     27 HAM          6.0010     1.4670     1.0500 hn         1 OZJ       0.123700
     28 HAB1        11.0510     1.9100     0.7830 hn         1 OZJ       0.274800
     29 HAB2        11.9900     0.7410     1.6530 hn         1 OZJ       0.274800
     30 HAC1         8.5320    -1.7840     5.2360 hn         1 OZJ       0.279300
     31 HAC2         9.7080    -2.6180     4.2740 hn         1 OZJ       0.279300
@<TRIPOS>BOND
     1     1     2 2   
     2     2     3 1   
     3     2    22 1   
     4     3     4 ar  
     5     3     5 ar  
     6     4     8 ar  
     7     4    23 1   
     8     5     6 ar  
     9     5    24 1   
    10     6     7 ar  
    11     6    25 1   
    12     7     8 ar  
    13     7    26 1   
    14     8     9 1   
    15     9    10 1   
    16     9    19 2   
    17    10    11 1   
    18    10    27 1   
    19    11    12 ar  
    20    11    18 ar  
    21    12    13 ar  
    22    13    14 1   
    23    13    15 ar  
    24    14    28 1   
    25    14    29 1   
    26    15    16 ar  
    27    16    17 1   
    28    16    18 ar  
    29    17    30 1   
    30    17    31 1   
    31    18    19 1   
    32    19    20 1   
    33    20    21 3   
@<TRIPOS>SUBSTRUCTURE
     1 OZJ         1 TEMP              0 ****  ****    0 ROOT
