@<TRIPOS>MOLECULE
molecule
   31    33     1     0     0
SMALL
bcc


@<TRIPOS>ATOM
      1 OAD          0.0000     0.0000     0.0000 o          1 OZJ      -0.520100
      2 CAF          1.2130     0.0000     0.0000 c          1 OZJ       0.580500
      3 CAP          1.9500     0.0000     1.2730 ca         1 OZJ      -0.199600
      4 CAJ          3.3460     0.0010     1.2740 ca         1 OZJ      -0.075000
      5 CAH          1.2530     0.0060     2.4870 ca         1 OZJ      -0.055000
      6 CAG          1.9440     0.0070     3.6830 ca         1 OZJ      -0.140000
      7 CAI          3.3250     0.0010     3.6910 ca         1 OZJ      -0.069000
      8 CAQ          4.0350     0.0000     2.4860 ca         1 OZJ      -0.065800
      9 CAS          5.5100    -0.0000     2.4980 cc         1 OZJ       0.032700
     10 NAM          6.3130     0.7880     1.7150 na         1 OZJ      -0.261100
     11 C4           7.6350     0.5370     1.9770 ca         1 OZJ       0.553800
     12 N3           8.7760     1.0290     1.4950 nb         1 OZJ      -0.857000
     13 C2           9.9420     0.5940     1.9410 ca         1 OZJ       0.996900
     14 NAB         11.1010     1.1320     1.4110 nv         1 OZJ      -0.989500
     15 N1          10.0420    -0.3420     2.8780 nb         1 OZJ      -0.855000
     16 C6           8.9560    -0.8880     3.4150 ca         1 OZJ       0.807200
     17 NAC          9.0630    -1.8620     4.3910 nv         1 OZJ      -1.028500
     18 C5           7.6990    -0.4550     2.9700 ca         1 OZJ      -0.403400
     19 CAR          6.3090    -0.7940     3.3070 cd         1 OZJ      -0.010900
     20 CAE          5.8680    -1.7540     4.2740 ch         1 OZJ       0.240500
     21 NAA          5.5010    -2.5060     5.0420 n1         1 OZJ      -0.383800
     22 HAF          1.7540    -0.0770    -0.9350 h4         1 OZJ       0.003200
     23 HAJ          3.8890     0.0010     0.3370 ha         1 OZJ       0.136000
     24 HAH          0.1700     0.0110     2.4890 ha         1 OZJ       0.157000
     25 HAG          1.4020     0.0120     4.6210 ha         1 OZJ       0.145000
     26 HAI          3.8610     0.0020     4.6320 ha         1 OZJ       0.148000
     27 HAM          6.0010     1.4670     1.0500 hn         1 OZJ       0.312700
     28 HAB1        11.0510     1.9100     0.7830 hn         1 OZJ       0.451800
     29 HAB2        11.9900     0.7410     1.6530 hn         1 OZJ       0.451800
     30 HAC1         8.5320    -1.7840     5.2360 hn         1 OZJ       0.447300
     31 HAC2         9.7080    -2.6180     4.2740 hn         1 OZJ       0.447300
@<TRIPOS>BOND
     1     1     2 2
     2     2     3 1
     3     2    22 1
     4     3     4 ar
     5     3     5 ar
     6     4     8 ar
     7     5     6 ar
     8     6     7 ar
     9     7     8 ar
    10     8     9 1
    11     9    10 1
    12     9    19 2
    13    10    11 1
    14    11    12 ar
    15    11    18 ar
    16    12    13 ar
    17    13    14 1
    18    13    15 ar
    19    15    16 ar
    20    16    17 1
    21    16    18 ar
    22    18    19 1
    23    19    20 1
    24    20    21 3
    25     4    23 1
    26     5    24 1
    27     6    25 1
    28     7    26 1
    29    10    27 1
    30    14    28 1
    31    14    29 1
    32    17    30 1
    33    17    31 1
@<TRIPOS>SUBSTRUCTURE
     1 OZJ         1 TEMP              0 ****  ****    0 ROOT
