@<TRIPOS>MOLECULE
molecule
   40    41     1     0     0
SMALL
bcc


@<TRIPOS>ATOM
      1 C1           0.0000     0.0000     0.0000 c3         1 OZR       0.117100
      2 C2           1.5480     0.0000     0.0000 c3         1 OZR       0.098100
      3 C3           1.8730     0.0000     1.5150 c3         1 OZR       0.108400
      4 O4           0.8470    -0.8460     2.0800 os         1 OZR      -0.413600
      5 C5          -0.3780    -0.5330     1.3960 c3         1 OZR       0.153300
      6 C6          -1.2210    -1.7740     1.2600 c2         1 OZR      -0.169200
      7 O7          -0.5000     1.3270    -0.1810 oh         1 OZR      -0.574800
      8 O8           2.0570     1.1770    -0.6300 oh         1 OZR      -0.573800
      9 C9          -0.8560    -2.8820     1.8570 c2         1 OZR      -0.183200
     10 C10         -1.7000    -4.1240     1.7210 c3         1 OZR       0.147200
     11 N11         -0.8710    -5.2230     1.2190 ns         1 OZR      -0.580900
     12 C12         -1.4160    -6.4390     1.0170 c          1 OZR       0.671700
     13 C13         -0.5830    -7.5470     0.5100 ca         1 OZR      -0.158600
     14 C14         -1.1450    -8.8110     0.3000 ca         1 OZR       0.200100
     15 C15         -0.3480    -9.8480    -0.1780 ca         1 OZR       0.042100
     16 C16          0.9920    -9.6250    -0.4420 ca         1 OZR      -0.089000
     17 C17          1.5480    -8.3730    -0.2340 ca         1 OZR      -0.166200
     18 C18          0.7720    -7.3360     0.2320 ca         1 OZR      -0.046000
     19 N19          2.9830    -8.1490    -0.5210 no         1 OZR       0.296200
     20 O20         -2.4600    -9.0250     0.5610 oh         1 OZR      -0.454100
     21 O21         -0.8870   -11.0790    -0.3850 oh         1 OZR      -0.492100
     22 O22         -2.5950    -6.6240     1.2520 o          1 OZR      -0.574100
     23 O23          3.6710    -9.0620    -0.9390 o          1 OZR      -0.202500
     24 O24          3.4750    -7.0490    -0.3390 o          1 OZR      -0.202500
     25 H1          -0.3770    -0.6620    -0.7710 h1         1 OZR       0.048700
     26 H2           1.9300    -0.8960    -0.4740 h1         1 OZR       0.049700
     27 H3           2.8540    -0.4230     1.6930 h1         1 OZR       0.066700
     28 H3A          1.8030     1.0030     1.9190 h1         1 OZR       0.066700
     29 H5          -0.9200     0.2290     1.9440 h1         1 OZR       0.082700
     30 H6          -2.1280    -1.7510     0.6690 ha         1 OZR       0.134000
     31 HO7         -1.0330     1.3590    -0.9580 ho         1 OZR       0.405000
     32 HO8          2.8140     0.9540    -1.1470 ho         1 OZR       0.401000
     33 H9           0.0510    -2.9060     2.4480 ha         1 OZR       0.153000
     34 H10         -2.1080    -4.3910     2.6880 h1         1 OZR       0.060700
     35 H10A        -2.5100    -3.9360     1.0270 h1         1 OZR       0.060700
     36 HN11         0.1060    -5.0790     1.0570 hn         1 OZR       0.317500
     37 H16          1.6100   -10.4340    -0.8120 ha         1 OZR       0.176000
     38 H18          1.2130    -6.3600     0.3930 ha         1 OZR       0.166000
     39 HO20        -2.5470    -9.7440     1.1650 ho         1 OZR       0.434000
     40 HO21        -0.4290   -11.7150     0.1380 ho         1 OZR       0.425000
@<TRIPOS>BOND
     1     1     2 1
     2     1     5 1
     3     1     7 1
     4     2     3 1
     5     2     8 1
     6     3     4 1
     7     4     5 1
     8     5     6 1
     9     6     9 2
    10     9    10 1
    11    10    11 1
    12    11    12 1
    13    12    13 1
    14    12    22 2
    15    13    14 ar
    16    13    18 ar
    17    14    15 ar
    18    14    20 1
    19    15    16 ar
    20    15    21 1
    21    16    17 ar
    22    17    18 ar
    23    17    19 1
    24    19    23 1
    25    19    24 1
    26     1    25 1
    27     2    26 1
    28     3    27 1
    29     3    28 1
    30     5    29 1
    31     6    30 1
    32     7    31 1
    33     8    32 1
    34     9    33 1
    35    10    34 1
    36    10    35 1
    37    11    36 1
    38    16    37 1
    39    18    38 1
    40    20    39 1
    41    21    40 1
@<TRIPOS>SUBSTRUCTURE
     1 OZR         1 TEMP              0 ****  ****    0 ROOT
