@<TRIPOS>MOLECULE
OZR
   40    43     1     0     0
SMALL
bcc


@<TRIPOS>ATOM
      1 C1           0.0000     0.0000     0.0000 c3         1 OZR       0.012000
      2 C2           1.5480     0.0000     0.0000 c3         1 OZR       0.027000
      3 C3           1.8730     0.0000     1.5150 c3         1 OZR       0.036000
      4 O4           0.8470    -0.8460     2.0800 os         1 OZR      -0.252000
      5 C5          -0.3780    -0.5330     1.3960 DU         1 OZR       0.124000
      6 C6          -1.2210    -1.7740     1.2600 c2         1 OZR      -0.167000
      7 O7          -0.5000     1.3270    -0.1810 oh         1 OZR      -0.286000
      8 O8           2.0570     1.1770    -0.6300 oh         1 OZR      -0.280000
      9 C9          -0.8560    -2.8820     1.8570 c2         1 OZR      -0.088000
     10 C10         -1.7000    -4.1240     1.7210 DU         1 OZR       0.095000
     11 N11         -0.8710    -5.2230     1.2190 ns         1 OZR      -0.058000
     12 C12         -1.4160    -6.4390     1.0170 c2         1 OZR       0.270000
     13 C13         -0.5830    -7.5470     0.5100 ca         1 OZR      -0.168000
     14 C14         -1.1450    -8.8110     0.3000 ca         1 OZR       0.183000
     15 C15         -0.3480    -9.8480    -0.1780 ca         1 OZR      -0.002000
     16 C16          0.9920    -9.6250    -0.4420 ca         1 OZR      -0.039000
     17 C17          1.5480    -8.3730    -0.2340 ca         1 OZR      -0.412000
     18 C18          0.7720    -7.3360     0.2320 ca         1 OZR       0.006000
     19 N19          2.9830    -8.1490    -0.5210 no         1 OZR       1.306000
     20 O20         -2.4600    -9.0250     0.5610 oh         1 OZR      -0.194000
     21 O21         -0.8870   -11.0790    -0.3850 oh         1 OZR      -0.225000
     22 O22         -2.5950    -6.6240     1.2520 o          1 OZR      -0.392000
     23 O23          3.6710    -9.0620    -0.9390 o          1 OZR      -0.600000
     24 O24          3.4750    -7.0490    -0.3390 o          1 OZR      -0.600000
     25 H1          -0.3770    -0.6620    -0.7710 h1         1 OZR       0.065000
     26 H2           1.9300    -0.8960    -0.4740 h1         1 OZR       0.057000
     27 H3           1.8030     1.0030     1.9190 h1         1 OZR       0.064500
     28 H3A          2.8540    -0.4230     1.6930 h1         1 OZR       0.064500
     29 H5          -0.9200     0.2290     1.9440 ha         1 OZR       0.072000
     30 H6          -1.2160    -1.1310     2.1320 DU         1 OZR       0.066000
     31 HO7         -1.0940     1.3420    -0.9130 ho         1 OZR       0.189000
     32 HO8          2.8060     0.9520    -1.1580 ho         1 OZR       0.184000
     33 H9          -1.7730    -3.0620     2.4050 DU         1 OZR       0.006000
     34 H10         -2.1080    -4.3910     2.6880 ha         1 OZR       0.069000
     35 H10A        -2.5100    -3.9360     1.0270 ha         1 OZR       0.069000
     36 HN11         0.1060    -5.0790     1.0570 hn         1 OZR       0.111000
     37 H16          1.6100   -10.4340    -0.8120 ha         1 OZR       0.141000
     38 H18          1.2130    -6.3600     0.3930 ha         1 OZR       0.136000
     39 HO20        -2.5440    -9.6710     1.2430 ho         1 OZR       0.209000
     40 HO21        -0.4360   -11.7130     0.1470 ho         1 OZR       0.203000
@<TRIPOS>BOND
     1     1     2 1   
     2     1     5 1   
     3     1     7 1   
     4     1    25 1   
     5     2     3 1   
     6     2     8 1   
     7     2    26 1   
     8     3     4 1   
     9     3    27 1   
    10     3    28 1   
    11     4     5 1   
    12     5     6 1   
    13     5    29 1   
    14     5    30 1   
    15     6     9 1   
    16     6    30 1   
    17     7    31 1   
    18     8    32 1   
    19     9    10 1   
    20     9    33 1   
    21    10    11 1   
    22    10    33 1   
    23    10    34 1   
    24    10    35 1   
    25    11    12 1   
    26    11    36 1   
    27    12    13 1   
    28    12    22 1   
    29    13    14 1   
    30    13    18 1   
    31    14    15 1   
    32    14    20 1   
    33    15    16 1   
    34    15    21 1   
    35    16    17 1   
    36    16    37 1   
    37    17    18 1   
    38    17    19 1   
    39    18    38 1   
    40    19    23 1   
    41    19    24 1   
    42    20    39 1   
    43    21    40 1   
@<TRIPOS>SUBSTRUCTURE
     1 OZR         1 TEMP              0 ****  ****    0 ROOT
