@<TRIPOS>MOLECULE
OZS
   50    54     1     0     0
SMALL
bcc


@<TRIPOS>ATOM
      1 C1           0.0000     0.0000     0.0000 c3         1 OZS       0.006000
      2 C2           1.5460     0.0000     0.0000 c3         1 OZS       0.013000
      3 C3           1.9210     0.0000     1.4980 c3         1 OZS       0.045000
      4 O4           0.7730    -0.5670     2.1670 os         1 OZS      -0.243000
      5 C5          -0.3740     0.0000     1.4990 DU         1 OZS       0.119000
      6 C6          -1.5940    -0.8530     1.7350 c2         1 OZS      -0.140000
      7 N7           3.1070    -0.8290     1.7270 na         1 OZS       0.328000
      8 O8          -0.5000     1.1750    -0.6410 oh         1 OZS      -0.278000
      9 O9           2.0460     1.1750    -0.6420 oh         1 OZS      -0.277000
     10 C10         -1.5520    -1.8270     2.6100 c2         1 OZS      -0.105000
     11 C11          3.1350    -2.1770     1.8250 c2         1 OZS      -0.247000
     12 C12          4.3930    -0.3860     1.8750 c2         1 OZS      -0.259000
     13 C13          5.1610    -1.4760     2.0630 c2         1 OZS      -0.243000
     14 N14          4.3670    -2.5560     2.0280 n2         1 OZS      -0.028000
     15 C15          6.6540    -1.4800     2.2740 c3         1 OZS       0.458000
     16 C16         -2.7700    -2.6810     2.8460 DU         1 OZS       0.103000
     17 N17         -2.4250    -4.0910     2.6520 ns         1 OZS      -0.061000
     18 C18         -3.3640    -5.0440     2.8100 c2         1 OZS       0.273000
     19 C19         -3.0160    -6.4640     2.6150 ca         1 OZS      -0.175000
     20 C20         -3.9890    -7.4560     2.7790 ca         1 OZS       0.184000
     21 C21         -3.6490    -8.7930     2.5920 ca         1 OZS       0.002000
     22 C22         -2.3530    -9.1350     2.2450 ca         1 OZS      -0.028000
     23 C23         -1.3890    -8.1530     2.0820 ca         1 OZS      -0.413000
     24 C24         -1.7130    -6.8250     2.2580 ca         1 OZS       0.008000
     25 N25         -0.0070    -8.5310     1.7110 no         1 OZS       1.305000
     26 O26         -5.2580    -7.1170     3.1200 oh         1 OZS      -0.211000
     27 O27         -4.5880    -9.7630     2.7510 oh         1 OZS      -0.239000
     28 O28         -4.5000    -4.7340     3.1150 o          1 OZS      -0.391000
     29 F29          6.9320    -1.3870     3.6420 f          1 OZS      -0.136333
     30 F30          7.1910    -2.6690     1.7700 f          1 OZS      -0.136333
     31 F31          7.2230    -0.3910     1.6060 f          1 OZS      -0.136333
     32 O32          0.2810    -9.7030     1.5500 o          1 OZS      -0.597000
     33 O33          0.8410    -7.6690     1.5670 o          1 OZS      -0.597000
     34 H1          -0.3770    -0.8930    -0.4830 h1         1 OZS       0.071000
     35 H2           1.9230    -0.8930    -0.4830 h1         1 OZS       0.066000
     36 H3           2.0920     1.0130     1.8410 h2         1 OZS       0.101000
     37 H5          -0.5440     1.0140     1.8430 ha         1 OZS       0.081000
     38 H6          -1.2710    -0.0530     2.3900 DU         1 OZS       0.061000
     39 HO8         -1.0930     0.9280    -1.3320 ho         1 OZS       0.193000
     40 HO9          2.4690     0.9350    -1.4500 ho         1 OZS       0.197000
     41 H10         -2.4040    -1.5250     3.2070 DU         1 OZS       0.019000
     42 H11          2.2760    -2.8330     1.7500 h5         1 OZS       0.174000
     43 H12          4.7280     0.6440     1.8480 h4         1 OZS       0.166000
     44 H16         -3.5490    -2.4010     2.1460 ha         1 OZS       0.071000
     45 H16A        -3.1250    -2.5330     3.8580 ha         1 OZS       0.071000
     46 HN17        -1.4870    -4.3480     2.4130 hn         1 OZS       0.112000
     47 H22         -2.0900   -10.1770     2.1030 ha         1 OZS       0.143000
     48 H24         -0.9560    -6.0610     2.1300 ha         1 OZS       0.134000
     49 HO26        -5.4330    -7.4000     4.0030 ho         1 OZS       0.221000
     50 HO27        -4.8200   -10.1170     1.9080 ho         1 OZS       0.214000
@<TRIPOS>BOND
     1     1     2 1   
     2     1     5 1   
     3     1     8 1   
     4     1    34 1   
     5     2     3 1   
     6     2     9 1   
     7     2    35 1   
     8     3     4 1   
     9     3     7 1   
    10     3    36 1   
    11     4     5 1   
    12     5     6 1   
    13     5    37 1   
    14     5    38 1   
    15     6    10 1   
    16     6    38 1   
    17     7    11 1   
    18     7    12 1   
    19     8    39 1   
    20     9    40 1   
    21    10    16 1   
    22    10    41 1   
    23    11    14 1   
    24    11    42 1   
    25    12    13 1   
    26    12    43 1   
    27    13    14 1   
    28    13    15 1   
    29    15    29 1   
    30    15    30 1   
    31    15    31 1   
    32    16    17 1   
    33    16    41 1   
    34    16    44 1   
    35    16    45 1   
    36    17    18 1   
    37    17    46 1   
    38    18    19 1   
    39    18    28 1   
    40    19    20 1   
    41    19    24 1   
    42    20    21 1   
    43    20    26 1   
    44    21    22 1   
    45    21    27 1   
    46    22    23 1   
    47    22    47 1   
    48    23    24 1   
    49    23    25 1   
    50    24    48 1   
    51    25    32 1   
    52    25    33 1   
    53    26    49 1   
    54    27    50 1   
@<TRIPOS>SUBSTRUCTURE
     1 OZS         1 TEMP              0 ****  ****    0 ROOT
