@<TRIPOS>MOLECULE
molecule
   50    52     1     0     0
SMALL
bcc


@<TRIPOS>ATOM
      1 C1           0.0000     0.0000     0.0000 c3         1 OZS       0.102100
      2 C2           1.5460     0.0000     0.0000 c3         1 OZS       0.089100
      3 C3           1.9210     0.0000     1.4980 c3         1 OZS       0.242800
      4 O4           0.7730    -0.5670     2.1670 os         1 OZS      -0.410600
      5 C5          -0.3740     0.0000     1.4990 c3         1 OZS       0.159300
      6 C6          -1.5940    -0.8530     1.7350 c2         1 OZS      -0.172200
      7 N7           3.1070    -0.8290     1.7270 na         1 OZS      -0.188900
      8 O8          -0.5000     1.1750    -0.6410 oh         1 OZS      -0.568800
      9 O9           2.0460     1.1750    -0.6420 oh         1 OZS      -0.569800
     10 C10         -1.5520    -1.8270     2.6100 c2         1 OZS      -0.174200
     11 C11          3.1350    -2.1770     1.8250 cc         1 OZS       0.417400
     12 C12          4.3930    -0.3860     1.8750 cc         1 OZS      -0.201600
     13 C13          5.1610    -1.4760     2.0630 cd         1 OZS       0.223600
     14 N14          4.3670    -2.5560     2.0280 nd         1 OZS      -0.654000
     15 C15          6.6540    -1.4800     2.2740 c3         1 OZS       0.617600
     16 C16         -2.7700    -2.6810     2.8460 c3         1 OZS       0.147200
     17 N17         -2.4250    -4.0910     2.6520 ns         1 OZS      -0.582900
     18 C18         -3.3640    -5.0440     2.8100 c          1 OZS       0.673700
     19 C19         -3.0160    -6.4640     2.6150 ca         1 OZS      -0.165600
     20 C20         -3.9890    -7.4560     2.7790 ca         1 OZS       0.197100
     21 C21         -3.6490    -8.7930     2.5920 ca         1 OZS       0.053100
     22 C22         -2.3530    -9.1350     2.2450 ca         1 OZS      -0.081000
     23 C23         -1.3890    -8.1530     2.0820 ca         1 OZS      -0.164200
     24 C24         -1.7130    -6.8250     2.2580 ca         1 OZS      -0.047000
     25 N25         -0.0070    -8.5310     1.7110 no         1 OZS       0.296200
     26 O26         -5.2580    -7.1170     3.1200 oh         1 OZS      -0.475100
     27 O27         -4.5880    -9.7630     2.7510 oh         1 OZS      -0.503100
     28 O28         -4.5000    -4.7340     3.1150 o          1 OZS      -0.574100
     29 F29          6.9320    -1.3870     3.6420 f          1 OZS      -0.217967
     30 F30          7.1910    -2.6690     1.7700 f          1 OZS      -0.217967
     31 F31          7.2230    -0.3910     1.6060 f          1 OZS      -0.217967
     32 O32          0.2810    -9.7030     1.5500 o          1 OZS      -0.198500
     33 O33          0.8410    -7.6690     1.5670 o          1 OZS      -0.198500
     34 H1          -0.3770    -0.8930    -0.4830 h1         1 OZS       0.056700
     35 H2           1.9230    -0.8930    -0.4830 h1         1 OZS       0.063700
     36 H3           2.0920     1.0130     1.8410 h2         1 OZS       0.102700
     37 H5          -0.5440     1.0140     1.8430 h1         1 OZS       0.089700
     38 H6          -2.5050    -0.6610     1.1810 ha         1 OZS       0.143000
     39 HO8         -1.0430     0.9280    -1.3710 ho         1 OZS       0.407000
     40 HO9          2.4740     0.9350    -1.4480 ho         1 OZS       0.413000
     41 H10         -0.6400    -2.0190     3.1630 ha         1 OZS       0.152000
     42 H11          2.2760    -2.8330     1.7500 h5         1 OZS       0.077100
     43 H12          4.7280     0.6440     1.8480 h4         1 OZS       0.193000
     44 H16         -3.5490    -2.4010     2.1460 h1         1 OZS       0.063700
     45 H16A        -3.1250    -2.5320     3.8580 h1         1 OZS       0.063700
     46 HN17        -1.4880    -4.3480     2.4100 hn         1 OZS       0.317500
     47 H22         -2.0900   -10.1770     2.1030 ha         1 OZS       0.179000
     48 H24         -0.9560    -6.0610     2.1300 ha         1 OZS       0.164000
     49 HO26        -5.8330    -7.2760     2.3900 ho         1 OZS       0.445000
     50 HO27        -4.4150   -10.2420     3.5440 ho         1 OZS       0.436000
@<TRIPOS>BOND
     1     1     2 1
     2     1     5 1
     3     1     8 1
     4     2     3 1
     5     2     9 1
     6     3     4 1
     7     3     7 1
     8     4     5 1
     9     5     6 1
    10     6    10 2
    11     7    11 1
    12     7    12 1
    13    10    16 1
    14    11    14 2
    15    12    13 2
    16    13    14 1
    17    13    15 1
    18    15    29 1
    19    15    30 1
    20    15    31 1
    21    16    17 1
    22    17    18 1
    23    18    19 1
    24    18    28 2
    25    19    20 ar
    26    19    24 ar
    27    20    21 ar
    28    20    26 1
    29    21    22 ar
    30    21    27 1
    31    22    23 ar
    32    23    24 ar
    33    23    25 1
    34    25    32 1
    35    25    33 1
    36     1    34 1
    37     2    35 1
    38     3    36 1
    39     5    37 1
    40     6    38 1
    41     8    39 1
    42     9    40 1
    43    10    41 1
    44    11    42 1
    45    12    43 1
    46    16    44 1
    47    16    45 1
    48    17    46 1
    49    22    47 1
    50    24    48 1
    51    26    49 1
    52    27    50 1
@<TRIPOS>SUBSTRUCTURE
     1 OZS         1 TEMP              0 ****  ****    0 ROOT
