@<TRIPOS>MOLECULE
molecule
   50    52     1     0     0
SMALL
bcc


@<TRIPOS>ATOM
      1 C1           0.0000     0.0000     0.0000 c3         1 OZZ       0.103100
      2 C2           1.5450     0.0000     0.0000 c3         1 OZZ       0.088100
      3 C3           1.9210     0.0000     1.4980 c3         1 OZZ       0.408300
      4 O4           0.7730    -0.5680     2.1670 os         1 OZZ      -0.414600
      5 C5          -0.3760    -0.0010     1.4980 c3         1 OZZ       0.158300
      6 C6          -1.5940    -0.8550     1.7330 c2         1 OZZ      -0.172200
      7 N7           3.1060    -0.8300     1.7270 na         1 OZZ      -0.496200
      8 O8          -0.5010     1.1740    -0.6410 oh         1 OZZ      -0.569800
      9 O9           2.0460     1.1750    -0.6410 oh         1 OZZ      -0.569800
     10 C10         -1.5520    -1.8290     2.6070 c2         1 OZZ      -0.175200
     11 C11         -2.7710    -2.6840     2.8420 c3         1 OZZ       0.147200
     12 N12         -2.4250    -4.0940     2.6480 ns         1 OZZ      -0.582900
     13 C13         -3.3640    -5.0470     2.8060 c          1 OZZ       0.673700
     14 C14         -3.0150    -6.4670     2.6100 ca         1 OZZ      -0.164600
     15 C15         -3.9870    -7.4600     2.7730 ca         1 OZZ       0.197100
     16 C16         -3.6470    -8.7960     2.5860 ca         1 OZZ       0.054100
     17 C17         -2.3510    -9.1370     2.2400 ca         1 OZZ      -0.081000
     18 C18         -1.3870    -8.1550     2.0780 ca         1 OZZ      -0.164200
     19 C19         -1.7110    -6.8270     2.2540 ca         1 OZZ      -0.047000
     20 N20         -0.0050    -8.5320     1.7070 no         1 OZZ       0.296200
     21 O21         -5.2570    -7.1220     3.1140 oh         1 OZZ      -0.476100
     22 O22         -4.5860    -9.7660     2.7440 oh         1 OZZ      -0.503100
     23 O23         -4.4990    -4.7370     3.1110 o          1 OZZ      -0.574100
     24 O24          0.2830    -9.7040     1.5450 o          1 OZZ      -0.199500
     25 O25          0.8440    -7.6700     1.5640 o          1 OZZ      -0.199500
     26 C26          4.2500    -0.2450     2.1630 cc         1 OZZ       0.079500
     27 C27          5.3610    -0.9840     2.3820 cd         1 OZZ      -0.301200
     28 C28          5.3200    -2.3790     2.1540 c          1 OZZ       0.562500
     29 C29          3.0330    -2.1660     1.5050 cc         1 OZZ       0.079500
     30 C30          4.1100    -2.9570     1.7010 cd         1 OZZ      -0.301200
     31 O31          6.3090    -3.0720     2.3440 o          1 OZZ      -0.581100
     32 H1          -0.3770    -0.8930    -0.4830 h1         1 OZZ       0.054700
     33 H2           1.9220    -0.8930    -0.4830 h1         1 OZZ       0.060700
     34 H3           2.0910     1.0130     1.8420 h2         1 OZZ       0.099700
     35 H5          -0.5470     1.0120     1.8420 h1         1 OZZ       0.088700
     36 H6          -2.5050    -0.6630     1.1790 ha         1 OZZ       0.142000
     37 HO8         -1.0420     0.9270    -1.3730 ho         1 OZZ       0.407000
     38 HO9          2.4900     0.9330    -1.4370 ho         1 OZZ       0.412000
     39 H10         -0.6410    -2.0210     3.1620 ha         1 OZZ       0.153000
     40 H11         -3.5490    -2.4040     2.1430 h1         1 OZZ       0.062700
     41 H11A        -3.1260    -2.5360     3.8550 h1         1 OZZ       0.062700
     42 HN12        -1.4880    -4.3500     2.4070 hn         1 OZZ       0.317500
     43 H17         -2.0880   -10.1790     2.0970 ha         1 OZZ       0.179000
     44 H19         -0.9540    -6.0630     2.1260 ha         1 OZZ       0.164000
     45 HO21        -5.8310    -7.2790     2.3830 ho         1 OZZ       0.445000
     46 HO22        -4.4120   -10.2470     3.5360 ho         1 OZZ       0.436000
     47 H26          4.2740     0.8240     2.3350 h4         1 OZZ       0.155500
     48 H27          6.2720    -0.5120     2.7290 ha         1 OZZ       0.165000
     49 H29          2.1040    -2.6020     1.1580 h4         1 OZZ       0.155500
     50 H30          4.0470    -4.0230     1.5200 ha         1 OZZ       0.165000
@<TRIPOS>BOND
     1     1     2 1
     2     1     5 1
     3     1     8 1
     4     2     3 1
     5     2     9 1
     6     3     4 1
     7     3     7 1
     8     4     5 1
     9     5     6 1
    10     6    10 2
    11     7    26 1
    12     7    29 1
    13    10    11 1
    14    11    12 1
    15    12    13 1
    16    13    14 1
    17    13    23 2
    18    14    15 ar
    19    14    19 ar
    20    15    16 ar
    21    15    21 1
    22    16    17 ar
    23    16    22 1
    24    17    18 ar
    25    18    19 ar
    26    18    20 1
    27    20    24 1
    28    20    25 1
    29    26    27 2
    30    27    28 1
    31    28    30 1
    32    28    31 2
    33    29    30 2
    34     1    32 1
    35     2    33 1
    36     3    34 1
    37     5    35 1
    38     6    36 1
    39     8    37 1
    40     9    38 1
    41    10    39 1
    42    11    40 1
    43    11    41 1
    44    12    42 1
    45    17    43 1
    46    19    44 1
    47    21    45 1
    48    22    46 1
    49    26    47 1
    50    27    48 1
    51    29    49 1
    52    30    50 1
@<TRIPOS>SUBSTRUCTURE
     1 OZZ         1 TEMP              0 ****  ****    0 ROOT
