@<TRIPOS>MOLECULE
OZZ
   50    54     1     0     0
SMALL
bcc


@<TRIPOS>ATOM
      1 C1           0.0000     0.0000     0.0000 c3         1 OZZ       0.006000
      2 C2           1.5450     0.0000     0.0000 c3         1 OZZ       0.011000
      3 C3           1.9210     0.0000     1.4980 c3         1 OZZ       0.031000
      4 O4           0.7730    -0.5680     2.1670 os         1 OZZ      -0.248000
      5 C5          -0.3760    -0.0010     1.4980 DU         1 OZZ       0.121000
      6 C6          -1.5940    -0.8550     1.7330 c2         1 OZZ      -0.144000
      7 N7           3.1060    -0.8300     1.7270 na         1 OZZ       0.285000
      8 O8          -0.5010     1.1740    -0.6410 oh         1 OZZ      -0.278000
      9 O9           2.0460     1.1750    -0.6410 oh         1 OZZ      -0.277000
     10 C10         -1.5520    -1.8290     2.6070 c2         1 OZZ      -0.103000
     11 C11         -2.7710    -2.6840     2.8420 DU         1 OZZ       0.102000
     12 N12         -2.4250    -4.0940     2.6480 ns         1 OZZ      -0.061000
     13 C13         -3.3640    -5.0470     2.8060 c2         1 OZZ       0.273000
     14 C14         -3.0150    -6.4670     2.6100 ca         1 OZZ      -0.171000
     15 C15         -3.9870    -7.4600     2.7730 ca         1 OZZ       0.180000
     16 C16         -3.6470    -8.7960     2.5860 ca         1 OZZ       0.006000
     17 C17         -2.3510    -9.1370     2.2400 ca         1 OZZ      -0.034000
     18 C18         -1.3870    -8.1550     2.0780 ca         1 OZZ      -0.410000
     19 C19         -1.7110    -6.8270     2.2540 ca         1 OZZ       0.005000
     20 N20         -0.0050    -8.5320     1.7070 no         1 OZZ       1.305000
     21 O21         -5.2570    -7.1220     3.1140 oh         1 OZZ      -0.203000
     22 O22         -4.5860    -9.7660     2.7440 oh         1 OZZ      -0.224000
     23 O23         -4.4990    -4.7370     3.1110 o          1 OZZ      -0.391000
     24 O24          0.2830    -9.7040     1.5450 o          1 OZZ      -0.597500
     25 O25          0.8440    -7.6700     1.5640 o          1 OZZ      -0.597500
     26 C26          4.2500    -0.2450     2.1630 c2         1 OZZ      -0.149500
     27 C27          5.3610    -0.9840     2.3820 c2         1 OZZ      -0.245500
     28 C28          5.3200    -2.3790     2.1540 c2         1 OZZ       0.325000
     29 C29          3.0330    -2.1660     1.5050 c2         1 OZZ      -0.149500
     30 C30          4.1100    -2.9570     1.7010 c2         1 OZZ      -0.245500
     31 O31          6.3090    -3.0720     2.3440 o          1 OZZ      -0.379000
     32 H1          -0.3770    -0.8930    -0.4830 h1         1 OZZ       0.069000
     33 H2           1.9220    -0.8930    -0.4830 h1         1 OZZ       0.066000
     34 H3           2.0910     1.0130     1.8420 h2         1 OZZ       0.099000
     35 H5          -0.5470     1.0120     1.8420 ha         1 OZZ       0.079000
     36 H6          -1.2720    -0.0550     2.3890 DU         1 OZZ       0.062000
     37 HO8         -1.0960     0.9270    -1.3290 ho         1 OZZ       0.192000
     38 HO9          2.4960     0.9330    -1.4340 ho         1 OZZ       0.195000
     39 H10         -2.4050    -1.5280     3.2040 DU         1 OZZ       0.016000
     40 H11         -3.1260    -2.5360     3.8550 ha         1 OZZ       0.070500
     41 H11A        -3.5490    -2.4040     2.1430 ha         1 OZZ       0.070500
     42 HN12        -1.4890    -4.3500     2.4010 hn         1 OZZ       0.112000
     43 H17         -2.0880   -10.1790     2.0970 ha         1 OZZ       0.143000
     44 H19         -0.9540    -6.0630     2.1260 ha         1 OZZ       0.134000
     45 HO21        -5.4230    -7.3810     4.0050 ho         1 OZZ       0.212000
     46 HO22        -4.3560   -10.3100     3.4790 ho         1 OZZ       0.203000
     47 H26          4.2740     0.8240     2.3350 h4         1 OZZ       0.131500
     48 H27          6.2720    -0.5120     2.7290 ha         1 OZZ       0.138000
     49 H29          2.1040    -2.6020     1.1580 h4         1 OZZ       0.131500
     50 H30          4.0470    -4.0230     1.5200 ha         1 OZZ       0.138000
@<TRIPOS>BOND
     1     1     2 1   
     2     1     5 1   
     3     1     8 1   
     4     1    32 1   
     5     2     3 1   
     6     2     9 1   
     7     2    33 1   
     8     3     4 1   
     9     3     7 1   
    10     3    34 1   
    11     4     5 1   
    12     5     6 1   
    13     5    35 1   
    14     5    36 1   
    15     6    10 1   
    16     6    36 1   
    17     7    26 1   
    18     7    29 1   
    19     8    37 1   
    20     9    38 1   
    21    10    11 1   
    22    10    39 1   
    23    11    12 1   
    24    11    39 1   
    25    11    40 1   
    26    11    41 1   
    27    12    13 1   
    28    12    42 1   
    29    13    14 1   
    30    13    23 1   
    31    14    15 1   
    32    14    19 1   
    33    15    16 1   
    34    15    21 1   
    35    16    17 1   
    36    16    22 1   
    37    17    18 1   
    38    17    43 1   
    39    18    19 1   
    40    18    20 1   
    41    19    44 1   
    42    20    24 1   
    43    20    25 1   
    44    21    45 1   
    45    22    46 1   
    46    26    27 1   
    47    26    47 1   
    48    27    28 1   
    49    27    48 1   
    50    28    30 1   
    51    28    31 1   
    52    29    30 1   
    53    29    49 1   
    54    30    50 1   
@<TRIPOS>SUBSTRUCTURE
     1 OZZ         1 TEMP              0 ****  ****    0 ROOT
