@<TRIPOS>MOLECULE
L01
   80    82     1     0     0
SMALL
bcc


@<TRIPOS>ATOM
      1 C1           0.0000     0.0000     0.0000 c3         1 L01       0.014400
      2 C2           1.5220     0.0000     0.0000 c3         1 L01      -0.053400
      3 C3           2.1100     0.0000     1.4060 c3         1 L01       0.048000
      4 N4           3.5660     0.0200     1.3980 n          1 L01      -0.170800
      5 C5           4.1810     1.3460     1.4030 c3         1 L01       0.048000
      6 C6           4.4330     1.8650     2.8130 c3         1 L01      -0.053400
      7 C7           5.0530     3.2550     2.8260 c3         1 L01       0.014400
      8 C8           4.3320    -1.1600     1.3860 c          1 L01       0.625700
      9 O9           3.8500    -2.3000     1.3830 o          1 L01      -0.610100
     10 C10          5.7830    -1.0570     1.3630 ca         1 L01      -0.152600
     11 C11          6.4580    -1.0110     0.1430 ca         1 L01      -0.051000
     12 C12          7.8480    -0.9110     0.1190 ca         1 L01      -0.115000
     13 C13          8.5650    -0.8580     1.3140 ca         1 L01      -0.026000
     14 C14          7.8740    -0.9060     2.5080 ca         1 L01      -0.164600
     15 C15          6.4990    -1.0050     2.5580 ca         1 L01      -0.052000
     16 C16          8.6380    -0.8540     3.7800 c          1 L01       0.614700
     17 O17          9.8040    -1.2400     3.7970 o          1 L01      -0.624100
     18 N18          7.9560    -0.3370     4.8680 ns         1 L01      -0.198900
     19 C19          8.5730    -0.1980     6.1720 c3         1 L01      -0.007300
     20 C21          8.6140     1.2970     6.5450 c3         1 L01       0.017900
     21 C22          9.6650     2.0840     5.8030 ca         1 L01      -0.090300
     22 C23         10.9360     2.1990     6.3450 ca         1 L01      -0.093500
     23 C24         11.9080     2.9260     5.6590 ca         1 L01      -0.095000
     24 C25         11.5980     3.5300     4.4400 ca         1 L01      -0.099000
     25 C26         10.3150     3.4060     3.9080 ca         1 L01      -0.095000
     26 C27          9.3420     2.6780     4.5930 ca         1 L01      -0.093500
     27 C28          7.8480    -1.0760     7.2160 c3         1 L01       0.184100
     28 O30          7.9270    -2.4440     6.8150 oh         1 L01      -0.560800
     29 C31          6.3780    -0.6830     7.3890 c3         1 L01       0.117800
     30 N32          5.7340    -1.5700     8.3850 n7         1 L01      -0.555200
     31 C35          4.3540    -1.1790     8.5800 c3         1 L01       0.197100
     32 C36          3.6520    -2.0680     9.5660 ca         1 L01      -0.059300
     33 C37          3.6670    -1.7420    10.9170 ca         1 L01      -0.144000
     34 C38          3.0150    -2.5690    11.8330 ca         1 L01      -0.056000
     35 C39          2.3530    -3.7150    11.3900 ca         1 L01      -0.210000
     36 C40          2.3440    -4.0340    10.0330 ca         1 L01       0.150100
     37 O41          1.6980    -5.1520     9.6010 os         1 L01      -0.305900
     38 C42          1.0520    -5.9500    10.5910 c3         1 L01       0.244700
     39 C43          2.9960    -3.2070     9.1170 ca         1 L01      -0.114000
     40 H1C1        -0.3610    -0.0400    -1.0210 hc         1 L01       0.002700
     41 H1C2        -0.3610    -0.8640     0.5450 hc         1 L01       0.002700
     42 H1C3        -0.3610     0.9040     0.4760 hc         1 L01       0.002700
     43 H2C1         1.8710    -0.8810    -0.5250 hc         1 L01       0.015450
     44 H2C2         1.8710     0.8810    -0.5250 hc         1 L01       0.015450
     45 H3C1         1.7510     0.8740     1.9370 h1         1 L01       0.027200
     46 H3C2         1.7750    -0.8890     1.9270 h1         1 L01       0.027200
     47 H5C1         5.1250     1.2960     0.8730 h1         1 L01       0.027200
     48 H5C2         3.5250     2.0370     0.8870 h1         1 L01       0.027200
     49 H6C1         5.1000     1.1800     3.3230 hc         1 L01       0.015450
     50 H6C2         3.4910     1.8980     3.3470 hc         1 L01       0.015450
     51 H7C1         5.3240     3.5190     3.8410 hc         1 L01       0.002700
     52 H7C2         4.3370     3.9730     2.4450 hc         1 L01       0.002700
     53 H7C3         5.9380     3.2610     2.2030 hc         1 L01       0.002700
     54 H11          5.9020    -1.0510    -0.7860 ha         1 L01       0.109000
     55 H12          8.3720    -0.8740    -0.8290 ha         1 L01       0.109000
     56 H13          9.6450    -0.7810     1.3060 ha         1 L01       0.129000
     57 H15          5.9840    -1.0410     3.5100 ha         1 L01       0.116000
     58 H18          7.0050    -0.0490     4.7500 hn         1 L01       0.179500
     59 H19          9.5950    -0.5500     6.0960 h1         1 L01       0.070700
     60 H211         7.6440     1.7310     6.3340 hc         1 L01       0.018700
     61 H212         8.8060     1.3810     7.6080 hc         1 L01       0.018700
     62 H23         11.1720     1.7280     7.2910 ha         1 L01       0.104500
     63 H24         12.9050     3.0230     6.0720 ha         1 L01       0.102000
     64 H25         12.3530     4.0950     3.9080 ha         1 L01       0.103000
     65 H26         10.0740     3.8750     2.9610 ha         1 L01       0.102000
     66 H27          8.3440     2.5780     4.1840 ha         1 L01       0.104500
     67 H28          8.3500    -0.9650     8.1700 h1         1 L01      -0.000300
     68 H30          8.4550    -2.9220     7.4330 ho         1 L01       0.394000
     69 H311         6.3170     0.3440     7.7290 h1         1 L01       0.013200
     70 H312         5.8660    -0.7770     6.4390 h1         1 L01       0.013200
     71 H32          6.2260    -1.5070     9.2550 hn         1 L01       0.248800
     72 H351         4.3260    -0.1590     8.9440 h1         1 L01       0.007200
     73 H352         3.8360    -1.2290     7.6300 h1         1 L01       0.007200
     74 H37          4.1820    -0.8520    11.2570 ha         1 L01       0.104000
     75 H38          3.0220    -2.3200    12.8870 ha         1 L01       0.100000
     76 H39          1.8460    -4.3560    12.1010 ha         1 L01       0.120000
     77 H421         1.7840    -6.2970    11.3100 h1         1 L01      -0.002967
     78 H422         0.3000    -5.3580    11.0980 h1         1 L01      -0.002967
     79 H423         0.5800    -6.8020    10.1160 h1         1 L01      -0.002967
     80 H43          2.9900    -3.4530     8.0620 ha         1 L01       0.126000
@<TRIPOS>BOND
     1     1     2 1   
     2     1    40 1   
     3     1    41 1   
     4     1    42 1   
     5     2     3 1   
     6     2    43 1   
     7     2    44 1   
     8     3     4 1   
     9     3    45 1   
    10     3    46 1   
    11     4     5 1   
    12     4     8 1   
    13     5     6 1   
    14     5    47 1   
    15     5    48 1   
    16     6     7 1   
    17     6    49 1   
    18     6    50 1   
    19     7    51 1   
    20     7    52 1   
    21     7    53 1   
    22     8     9 2   
    23     8    10 1   
    24    10    11 ar  
    25    10    15 ar  
    26    11    12 ar  
    27    11    54 1   
    28    12    13 ar  
    29    12    55 1   
    30    13    14 ar  
    31    13    56 1   
    32    14    15 ar  
    33    14    16 1   
    34    15    57 1   
    35    16    17 2   
    36    16    18 1   
    37    18    19 1   
    38    18    58 1   
    39    19    20 1   
    40    19    27 1   
    41    19    59 1   
    42    20    21 1   
    43    20    60 1   
    44    20    61 1   
    45    21    22 ar  
    46    21    26 ar  
    47    22    23 ar  
    48    22    62 1   
    49    23    24 ar  
    50    23    63 1   
    51    24    25 ar  
    52    24    64 1   
    53    25    26 ar  
    54    25    65 1   
    55    26    66 1   
    56    27    28 1   
    57    27    29 1   
    58    27    67 1   
    59    28    68 1   
    60    29    30 1   
    61    29    69 1   
    62    29    70 1   
    63    30    31 1   
    64    30    71 1   
    65    31    32 1   
    66    31    72 1   
    67    31    73 1   
    68    32    33 ar  
    69    32    39 ar  
    70    33    34 ar  
    71    33    74 1   
    72    34    35 ar  
    73    34    75 1   
    74    35    36 ar  
    75    35    76 1   
    76    36    37 1   
    77    36    39 ar  
    78    37    38 1   
    79    38    77 1   
    80    38    78 1   
    81    38    79 1   
    82    39    80 1   
@<TRIPOS>SUBSTRUCTURE
     1 L01         1 TEMP              0 ****  ****    0 ROOT
