@<TRIPOS>MOLECULE
molecule
   34    36     1     0     0
SMALL
bcc


@<TRIPOS>ATOM
      1 N1           0.0000     0.0000     0.0000 na         1 L02      -0.037600
      2 N3           1.4010     0.0000     0.0000 nc         1 L02      -0.501800
      3 C4           1.8090     0.0000     1.2510 cd         1 L02       0.389800
      4 C5           0.6700     0.0090     2.0780 cd         1 L02      -0.336300
      5 C6          -0.4200     0.0090     1.2830 cc         1 L02      -0.061600
      6 C7          -1.8550     0.0160     1.7440 c3         1 L02      -0.009400
      7 C8          -2.7240     0.7350     0.7080 c3         1 L02      -0.073900
      8 C10         -4.1920     0.6390     1.1270 c3         1 L02       0.147800
      9 N12         -4.6030    -0.7670     1.1770 n7         1 L02      -0.802200
     10 C13         -3.8390    -1.4070     2.2540 c3         1 L02       0.147800
     11 C15         -2.3520    -1.4240     1.8960 c3         1 L02      -0.073900
     12 C20          4.1680    -0.7780     1.0460 ca         1 L02      -0.098500
     13 C21          3.2210    -0.0020     1.7090 ca         1 L02      -0.108500
     14 C22          3.6030     0.7740     2.8000 ca         1 L02      -0.098500
     15 C24          4.9160     0.7640     3.2250 ca         1 L02      -0.126000
     16 C26          5.8550    -0.0040     2.5590 ca         1 L02       0.032400
     17 C28          5.4800    -0.7760     1.4740 ca         1 L02      -0.126000
     18 Cl1          7.5070    -0.0070     3.0940 cl         1 L02      -0.112400
     19 H1          -0.5870    -0.0010    -0.8100 hn         1 L02       0.332700
     20 H5           0.6690     0.0140     3.1610 ha         1 L02       0.156000
     21 H7          -1.9310     0.5270     2.6960 hc         1 L02       0.069700
     22 H8C1        -2.4330     1.7770     0.6540 hc         1 L02       0.053700
     23 H8C2        -2.5940     0.2670    -0.2600 hc         1 L02       0.053700
     24 H101        -4.8060     1.1670     0.4080 h1         1 L02       0.034950
     25 H102        -4.3140     1.0830     2.1080 h1         1 L02       0.034950
     26 H12         -5.5810    -0.8220     1.3830 hn         1 L02       0.354800
     27 H131        -4.1880    -2.4240     2.3850 h1         1 L02       0.034950
     28 H132        -3.9810    -0.8510     3.1730 h1         1 L02       0.034950
     29 H151        -2.2120    -1.9550     0.9630 hc         1 L02       0.053700
     30 H152        -1.7970    -1.9160     2.6860 hc         1 L02       0.053700
     31 H22          2.8680     1.3750     3.3210 ha         1 L02       0.146000
     32 H24          5.2140     1.3670     4.0740 ha         1 L02       0.144500
     33 H28          6.2180    -1.3780     0.9580 ha         1 L02       0.144500
     34 H20          3.8750    -1.3830     0.1970 ha         1 L02       0.146000
@<TRIPOS>BOND
     1     1     2 1
     2     1     5 1
     3     1    19 1
     4     2     3 2
     5     3     4 1
     6     3    13 1
     7     4     5 2
     8     4    20 1
     9     5     6 1
    10     6     7 1
    11     6    11 1
    12     6    21 1
    13     7     8 1
    14     7    22 1
    15     7    23 1
    16     8     9 1
    17     8    24 1
    18     8    25 1
    19     9    10 1
    20     9    26 1
    21    10    11 1
    22    10    27 1
    23    10    28 1
    24    11    29 1
    25    11    30 1
    26    12    13 ar
    27    12    17 ar
    28    12    34 1
    29    13    14 ar
    30    14    15 ar
    31    14    31 1
    32    15    16 ar
    33    15    32 1
    34    16    17 ar
    35    16    18 1
    36    17    33 1
@<TRIPOS>SUBSTRUCTURE
     1 L02         1 TEMP              0 ****  ****    0 ROOT
