@<TRIPOS>MOLECULE
L03
   22    23     1     0     0
SMALL
bcc


@<TRIPOS>ATOM
      1 C1          0.0560   -0.0140   -0.0630 c3        1 L03     -0.052000
      2 S2          1.7900   -0.2000    0.1160 ss        1 L03     -0.211400
      3 C3          2.0340   -0.0490    1.7770 cc        1 L03      0.423800
      4 N4          1.1000    0.1800    2.7650 nd        1 L03     -0.360000
      5 N5          1.6930    0.2320    3.9290 nd        1 L03     -0.325000
      6 C6          3.0450    0.0380    3.7660 cc        1 L03      0.408000
      7 N7          3.2880   -0.1450    2.3900 na        1 L03     -0.418700
      8 C8          4.0740    0.0230    4.7950 ca        1 L03     -0.117500
      9 C9          3.8390    0.6830    6.0110 ca        1 L03     -0.099000
     10 C10         4.8100    0.6780    7.0090 ca        1 L03     -0.125500
     11 C11         6.0220    0.0140    6.7960 ca        1 L03      0.025400
     12 CL12        7.2100    0.0120    8.0100 cl        1 L03     -0.086400
     13 C13         6.2630   -0.6510    5.5890 ca        1 L03     -0.125500
     14 C14         5.2890   -0.6470    4.5940 ca        1 L03     -0.099000
     15 H1C1       -0.3010    0.9810    0.2860 h1        1 L03      0.082033
     16 H1C2       -0.5120   -0.8000    0.4820 h1        1 L03      0.082033
     17 H1C3       -0.1290   -0.1120   -1.1590 h1        1 L03      0.082033
     18 H7          4.1580   -0.2890    1.9500 hn        1 L03      0.317700
     19 H9          2.8840    1.2040    6.1820 ha        1 L03      0.147500
     20 H10         4.6200    1.1970    7.9620 ha        1 L03      0.152000
     21 H13         7.2140   -1.1800    5.4260 ha        1 L03      0.152000
     22 H14         5.4850   -1.1900    3.6580 ha        1 L03      0.147500
@<TRIPOS>BOND
     1    1    2 1   
     2    1   15 1   
     3    1   16 1   
     4    1   17 1   
     5    2    3 1   
     6    3    4 2   
     7    3    7 1   
     8    4    5 1   
     9    5    6 2   
    10    6    7 1   
    11    6    8 1   
    12    7   18 1   
    13    8    9 ar  
    14    8   14 ar  
    15    9   10 ar  
    16    9   19 1   
    17   10   11 ar  
    18   10   20 1   
    19   11   12 1   
    20   11   13 ar  
    21   13   14 ar  
    22   13   21 1   
    23   14   22 1   
@<TRIPOS>SUBSTRUCTURE
     1 L03         1 TEMP              0 ****  ****    0 ROOT
