@<TRIPOS>MOLECULE
molecule
   22    23     1     0     0
SMALL
bcc


@<TRIPOS>ATOM
      1 C1           0.0000     0.0000     0.0000 c3         1 L03      -0.006000
      2 S2           1.8090     0.0000     0.0000 ss         1 L03      -0.289400
      3 C3           2.1150     0.0000     1.7350 cc         1 L03       0.472800
      4 N4           1.2080     0.0060     2.6860 nd         1 L03      -0.365000
      5 N5           1.7780    -0.0010     3.8380 nd         1 L03      -0.331000
      6 C6           3.0830    -0.0010     3.6940 cc         1 L03       0.415000
      7 N7           3.3380    -0.0010     2.3430 na         1 L03      -0.419700
      8 C8           4.0870    -0.0010     4.7770 ca         1 L03      -0.119500
      9 C9           3.8810     0.7700     5.9230 ca         1 L03      -0.093500
     10 C10          4.8220     0.7650     6.9320 ca         1 L03      -0.123500
     11 C11          5.9680    -0.0030     6.8110 ca         1 L03       0.038400
     12 Cl12         7.1460    -0.0040     8.0840 cl         1 L03      -0.100400
     13 C13          6.1760    -0.7700     5.6780 ca         1 L03      -0.123500
     14 C14          5.2410    -0.7770     4.6640 ca         1 L03      -0.093500
     15 H1C1        -0.3610    -0.8840     0.5120 h1         1 L03       0.076367
     16 H1C2        -0.3610    -0.0020    -1.0210 h1         1 L03       0.076367
     17 H1C3        -0.3610     0.8850     0.5090 h1         1 L03       0.076367
     18 H7           4.2340    -0.0000     1.8970 hn         1 L03       0.316700
     19 H9           2.9850     1.3710     6.0190 ha         1 L03       0.147500
     20 H10          4.6640     1.3620     7.8220 ha         1 L03       0.149500
     21 H13          7.0730    -1.3710     5.5890 ha         1 L03       0.149500
     22 H14          5.4060    -1.3770     3.7770 ha         1 L03       0.147500
@<TRIPOS>BOND
     1     1     2 1
     2     1    15 1
     3     1    16 1
     4     1    17 1
     5     2     3 1
     6     3     4 2
     7     3     7 1
     8     4     5 1
     9     5     6 2
    10     6     7 1
    11     6     8 1
    12     7    18 1
    13     8     9 ar
    14     8    14 ar
    15     9    10 ar
    16     9    19 1
    17    10    11 ar
    18    10    20 1
    19    11    12 1
    20    11    13 ar
    21    13    14 ar
    22    13    21 1
    23    14    22 1
@<TRIPOS>SUBSTRUCTURE
     1 L03         1 TEMP              0 ****  ****    0 ROOT
