@<TRIPOS>MOLECULE
molecule
   99   103     1     0     0
SMALL
bcc


@<TRIPOS>ATOM
      1 C1           0.0000     0.0000     0.0000 c3         1 L04      -0.052400
      2 C2           1.5300     0.0000     0.0000 c3         1 L04      -0.177700
      3 C3           2.0310     0.0000     1.4210 c          1 L04       0.889600
      4 C4           1.7150     6.7950    -1.4450 c3         1 L04      -0.093100
      5 C5           6.9660    -4.4460    -5.2660 cp         1 L04      -0.031000
      6 C6           7.9220    -5.3670    -4.8430 ca         1 L04      -0.098000
      7 C7           3.5640     1.1840    -0.8350 c3         1 L04      -0.135700
      8 C8           3.9580     0.0160    -1.7400 c3         1 L04      -0.058400
      9 C9           5.4820    -0.0490    -1.8560 c3         1 L04      -0.049100
     10 C10          5.8710    -1.1990    -2.7490 ca         1 L04      -0.041300
     11 C11          6.0070    -0.9990    -4.1100 ca         1 L04      -0.122500
     12 C12          6.3630    -2.0490    -4.9310 ca         1 L04      -0.126000
     13 C13          6.5840    -3.3130    -4.3870 cp         1 L04      -0.069000
     14 C14          6.4450    -3.5080    -3.0150 ca         1 L04      -0.126000
     15 C15          6.0940    -2.4500    -2.2020 ca         1 L04      -0.122500
     16 C16          4.0790     2.4720    -1.4230 c          1 L04       0.674100
     17 C17          8.2740    -6.4190    -5.6620 ca         1 L04      -0.168500
     18 C18          2.0410     1.2480    -0.7200 c3         1 L04      -0.050400
     19 C19          4.9530     4.7330    -1.1760 c3         1 L04       0.034700
     20 C20          4.0040     5.9160    -0.9690 c3         1 L04      -0.086400
     21 C21          2.7110     5.6760    -1.7520 c3         1 L04      -0.072700
     22 C22          3.0180     5.6630    -3.2500 c3         1 L04      -0.093100
     23 C23         -0.5110    -1.2480     0.7200 c3         1 L04      -0.078400
     24 C24         -2.0410    -1.2490     0.7190 c3         1 L04      -0.107400
     25 C25         -2.5520    -2.4970     1.4410 c3         1 L04       0.130000
     26 C26         -4.8000    -1.9560     2.3880 c          1 L04       0.709100
     27 C27          6.2600     5.0100    -0.4800 c          1 L04       0.640100
     28 C28         -4.8700    -3.0940     0.4060 c3         1 L04       0.141300
     29 C29         -6.2230    -2.1460     2.0460 ca         1 L04      -0.151600
     30 C30          8.1740     6.3800    -0.1350 ca         1 L04       0.064600
     31 C31          8.2630     6.1200     1.2260 ca         1 L04      -0.146000
     32 C32          9.4280     6.4140     1.9090 ca         1 L04      -0.113500
     33 C33         10.5040     6.9660     1.2370 ca         1 L04      -0.154000
     34 C34         10.4170     7.2250    -0.1180 ca         1 L04      -0.113500
     35 C35          9.2590     6.9280    -0.8070 ca         1 L04      -0.146000
     36 C36         -6.2940    -2.8440     0.8390 ca         1 L04      -0.091300
     37 C37         -7.4030    -1.7730     2.6910 ca         1 L04      -0.060000
     38 C38         -7.5150    -3.1600     0.2910 ca         1 L04      -0.121000
     39 C39         -8.6820    -2.7870     0.9370 ca         1 L04      -0.113000
     40 C40         -8.6220    -2.0960     2.1340 ca         1 L04      -0.146000
     41 C41          7.6800    -6.5600    -6.9060 ca         1 L04       0.116900
     42 C42          6.7280    -5.6480    -7.3300 ca         1 L04      -0.168500
     43 C43          6.3670    -4.5950    -6.5140 ca         1 L04      -0.098000
     44 N1          -4.0170    -2.4970     1.4400 n          1 L04      -0.486800
     45 N18          4.3490     3.5190    -0.6190 ns         1 L04      -0.560900
     46 O4           2.1570     1.0440     2.0180 o          1 L04      -0.848800
     47 O5           2.3380    -1.1590     2.0250 o          1 L04      -0.848800
     48 O17          4.2500     2.5650    -2.6200 o          1 L04      -0.655100
     49 O28          6.6490     4.2660     0.3950 o          1 L04      -0.575100
     50 F1           8.0280    -7.5920    -7.7060 f          1 L04      -0.150900
     51 H11A        -0.3610     0.0010    -1.0210 hc         1 L04       0.024200
     52 H12A        -0.3610     0.8840     0.5110 hc         1 L04       0.024200
     53 H2           1.8910    -0.8850    -0.5100 hc         1 L04       0.047700
     54 H41          0.7820     6.5990    -1.9580 hc         1 L04       0.034200
     55 H42A         1.5370     6.8380    -0.3770 hc         1 L04       0.034200
     56 H43A         2.1200     7.7420    -1.7810 hc         1 L04       0.034200
     57 H6           8.3880    -5.2580    -3.8710 ha         1 L04       0.143000
     58 H7           3.9940     1.0390     0.1490 hc         1 L04       0.103700
     59 H81          3.5270     0.1600    -2.7240 hc         1 L04       0.060200
     60 H82          3.5890    -0.9100    -1.3160 hc         1 L04       0.060200
     61 H91          5.8520     0.8770    -2.2790 hc         1 L04       0.058200
     62 H92          5.9130    -0.1940    -0.8730 hc         1 L04       0.058200
     63 H11          5.8470    -0.0140    -4.5300 ha         1 L04       0.143500
     64 H12          6.5320    -1.8770    -5.9870 ha         1 L04       0.125000
     65 H14          6.5470    -4.5020    -2.5960 ha         1 L04       0.125000
     66 H15          6.1410    -2.7870    -1.1730 ha         1 L04       0.143500
     67 H17          9.0180    -7.1350    -5.3340 ha         1 L04       0.139000
     68 H181         1.7590     2.1300    -0.1580 hc         1 L04       0.037700
     69 H182         1.6060     1.2970    -1.7110 hc         1 L04       0.037700
     70 H19          5.1310     4.5940    -2.2360 h1         1 L04       0.105700
     71 H201         4.4770     6.8240    -1.3220 hc         1 L04       0.045200
     72 H202         3.7750     6.0140     0.0860 hc         1 L04       0.045200
     73 H21          2.2850     4.7230    -1.4620 hc         1 L04       0.077700
     74 H221         3.4720     4.7160    -3.5170 hc         1 L04       0.034200
     75 H222         3.7000     6.4700    -3.4860 hc         1 L04       0.034200
     76 H223         2.0980     5.7920    -3.8080 hc         1 L04       0.034200
     77 H231        -0.1490    -2.1330     0.2100 hc         1 L04       0.065200
     78 H232        -0.1510    -1.2490     1.7420 hc         1 L04       0.065200
     79 H241        -2.4030    -0.3640     1.2280 hc         1 L04       0.039700
     80 H242        -2.4020    -1.2500    -0.3030 hc         1 L04       0.039700
     81 H251        -2.1910    -3.3830     0.9310 h1         1 L04       0.063200
     82 H252        -2.1910    -2.4970     2.4620 h1         1 L04       0.063200
     83 H281        -4.6840    -2.6180    -0.5490 h1         1 L04       0.058700
     84 H282        -4.6840    -4.1590     0.3410 h1         1 L04       0.058700
     85 H31          7.4200     5.6910     1.7530 ha         1 L04       0.145500
     86 H32          9.4980     6.2120     2.9710 ha         1 L04       0.127500
     87 H33         11.4150     7.1980     1.7750 ha         1 L04       0.123000
     88 H34         11.2630     7.6550    -0.6410 ha         1 L04       0.127500
     89 H35          9.1920     7.1310    -1.8690 ha         1 L04       0.145500
     90 H37         -7.3620    -1.2320     3.6290 ha         1 L04       0.146000
     91 H38         -7.5630    -3.7010    -0.6470 ha         1 L04       0.128000
     92 H39         -9.6430    -3.0380     0.5040 ha         1 L04       0.127000
     93 H40         -9.5380    -1.8070     2.6350 ha         1 L04       0.129000
     94 H42          6.2640    -5.7630    -8.3020 ha         1 L04       0.139000
     95 H43          5.6230    -3.8820    -6.8470 ha         1 L04       0.143000
     96 HN8          4.1810     3.4510     0.3650 hn         1 L04       0.349500
     97 HN9          6.7190     6.6480    -1.6070 hn         1 L04       0.321500
     98 N29          6.9970     6.0830    -0.8290 ns         1 L04      -0.484100
     99 O1          -4.3950    -1.3880     3.3830 o          1 L04      -0.622500
@<TRIPOS>BOND
     1     1     2 1
     2     1    23 1
     3     1    51 1
     4     1    52 1
     5     2     3 1
     6     2    18 1
     7     2    53 1
     8     3    46 1
     9     3    47 1
    10     4    21 1
    11     4    54 1
    12     4    55 1
    13     4    56 1
    14     5     6 ar
    15     5    13 1
    16     5    43 ar
    17     6    17 ar
    18     6    57 1
    19     7     8 1
    20     7    16 1
    21     7    18 1
    22     7    58 1
    23     8     9 1
    24     8    59 1
    25     8    60 1
    26     9    10 1
    27     9    61 1
    28     9    62 1
    29    10    11 ar
    30    10    15 ar
    31    11    12 ar
    32    11    63 1
    33    12    13 ar
    34    12    64 1
    35    13    14 ar
    36    14    15 ar
    37    14    65 1
    38    15    66 1
    39    16    45 1
    40    16    48 2
    41    17    41 ar
    42    17    67 1
    43    18    68 1
    44    18    69 1
    45    19    20 1
    46    19    27 1
    47    19    45 1
    48    19    70 1
    49    20    21 1
    50    20    71 1
    51    20    72 1
    52    21    22 1
    53    21    73 1
    54    22    74 1
    55    22    75 1
    56    22    76 1
    57    23    24 1
    58    23    77 1
    59    23    78 1
    60    24    25 1
    61    24    79 1
    62    24    80 1
    63    25    44 1
    64    25    81 1
    65    25    82 1
    66    26    29 1
    67    26    44 1
    68    26    99 2
    69    27    98 1
    70    27    49 2
    71    28    36 1
    72    28    44 1
    73    28    83 1
    74    28    84 1
    75    29    36 ar
    76    29    37 ar
    77    30    31 ar
    78    30    35 ar
    79    30    98 1
    80    31    32 ar
    81    31    85 1
    82    32    33 ar
    83    32    86 1
    84    33    34 ar
    85    33    87 1
    86    34    35 ar
    87    34    88 1
    88    35    89 1
    89    36    38 ar
    90    37    40 ar
    91    37    90 1
    92    38    39 ar
    93    38    91 1
    94    39    40 ar
    95    39    92 1
    96    40    93 1
    97    41    42 ar
    98    41    50 1
    99    42    43 ar
   100    42    94 1
   101    43    95 1
   102    45    96 1
   103    98    97 1
@<TRIPOS>SUBSTRUCTURE
     1 L04         1 TEMP              0 ****  ****    0 ROOT
