@<TRIPOS>MOLECULE
L05
   49    52     1     0     0
SMALL
bcc


@<TRIPOS>ATOM
      1 C1           0.0000     0.0000     0.0000 c3         1 L05       0.216700
      2 O2           1.4300     0.0000     0.0000 os         1 L05      -0.283900
      3 C3           1.8230     0.0000     1.3020 ca         1 L05       0.099100
      4 C4           3.1740     0.0000     1.6180 ca         1 L05      -0.138500
      5 C5           3.5740    -0.0010     2.9400 ca         1 L05      -0.113000
      6 C6           2.6230    -0.0010     3.9520 ca         1 L05      -0.012400
      7 N7           3.0260    -0.0020     5.2900 nu         1 L05      -0.174400
      8 C8           2.0920     0.1460     6.2910 cc         1 L05      -0.080200
      9 C9           1.8460    -0.7250     7.3210 cd         1 L05      -0.141400
     10 C10          0.7620    -0.1280     8.1240 c          1 L05       0.643700
     11 O11          0.2720    -0.6140     9.1250 o          1 L05      -0.606500
     12 N12          0.4070     1.0420     7.5660 n          1 L05      -0.138400
     13 C13         -0.6390     1.9310     8.0770 c3         1 L05       0.121300
     14 C14         -0.0340     2.9100     9.0510 ca         1 L05      -0.142300
     15 C15          0.4540     4.1220     8.5990 ca         1 L05      -0.079000
     16 C16          1.0080     5.0200     9.4920 ca         1 L05      -0.105500
     17 C17          1.0760     4.7050    10.8360 ca         1 L05      -0.090000
     18 C18          0.5870     3.4940    11.2880 ca         1 L05      -0.105500
     19 C19          0.0280     2.5980    10.3960 ca         1 L05      -0.079000
     20 C20          1.1550     1.2800     6.4740 c          1 L05       0.621700
     21 O21          1.0720     2.2560     5.7560 o          1 L05      -0.603500
     22 C22          2.5320    -2.0100     7.5770 ca         1 L05      -0.031800
     23 C23          3.3090    -2.1740     8.7250 ca         1 L05      -0.077500
     24 C24          3.9460    -3.3750     8.9580 ca         1 L05      -0.102500
     25 C25          3.8170    -4.4160     8.0560 ca         1 L05      -0.091000
     26 C26          3.0490    -4.2610     6.9150 ca         1 L05      -0.102500
     27 C27          2.4020    -3.0660     6.6730 ca         1 L05      -0.077500
     28 C28          1.2700    -0.0010     3.6350 ca         1 L05      -0.113000
     29 C29          0.8720     0.0050     2.3120 ca         1 L05      -0.138500
     30 H11         -0.3610     0.8860     0.5090 h1         1 L05       0.001700
     31 H12         -0.3610    -0.0020    -1.0210 h1         1 L05       0.001700
     32 H13         -0.3610    -0.8840     0.5120 h1         1 L05       0.001700
     33 H4           3.9150     0.0000     0.8280 ha         1 L05       0.123500
     34 H5           4.6290    -0.0010     3.1870 ha         1 L05       0.109500
     35 HN7          3.9990    -0.0620     5.5190 hn         1 L05       0.289800
     36 H131        -1.3980     1.3450     8.5790 h1         1 L05       0.041700
     37 H132        -1.0870     2.4720     7.2530 h1         1 L05       0.041700
     38 H15          0.4010     4.3690     7.5450 ha         1 L05       0.118500
     39 H16          1.3910     5.9690     9.1380 ha         1 L05       0.105000
     40 H17          1.5120     5.4080    11.5360 ha         1 L05       0.102000
     41 H18          0.6370     3.2480    12.3410 ha         1 L05       0.105000
     42 H19         -0.3550     1.6480    10.7500 ha         1 L05       0.118500
     43 H23          3.4100    -1.3590     9.4330 ha         1 L05       0.110000
     44 H24          4.5490    -3.5030     9.8490 ha         1 L05       0.105000
     45 H25          4.3220    -5.3560     8.2420 ha         1 L05       0.103000
     46 H26          2.9510    -5.0800     6.2130 ha         1 L05       0.105000
     47 H27          1.8010    -2.9440     5.7800 ha         1 L05       0.110000
     48 H28          0.5280     0.0010     4.4240 ha         1 L05       0.109500
     49 H29         -0.1830     0.0050     2.0640 ha         1 L05       0.123500
@<TRIPOS>BOND
     1     1     2 1   
     2     1    30 1   
     3     1    31 1   
     4     1    32 1   
     5     2     3 1   
     6     3     4 ar  
     7     3    29 ar  
     8     4     5 ar  
     9     4    33 1   
    10     5     6 ar  
    11     5    34 1   
    12     6     7 1   
    13     6    28 ar  
    14     7     8 1   
    15     7    35 1   
    16     8     9 2   
    17     8    20 1   
    18     9    10 1   
    19     9    22 1   
    20    10    11 2   
    21    10    12 1   
    22    12    13 1   
    23    12    20 1   
    24    13    14 1   
    25    13    36 1   
    26    13    37 1   
    27    14    15 ar  
    28    14    19 ar  
    29    15    16 ar  
    30    15    38 1   
    31    16    17 ar  
    32    16    39 1   
    33    17    18 ar  
    34    17    40 1   
    35    18    19 ar  
    36    18    41 1   
    37    19    42 1   
    38    20    21 2   
    39    22    23 ar  
    40    22    27 ar  
    41    23    24 ar  
    42    23    43 1   
    43    24    25 ar  
    44    24    44 1   
    45    25    26 ar  
    46    25    45 1   
    47    26    27 ar  
    48    26    46 1   
    49    27    47 1   
    50    28    29 ar  
    51    28    48 1   
    52    29    49 1   
@<TRIPOS>SUBSTRUCTURE
     1 L05         1 TEMP              0 ****  ****    0 ROOT
