@<TRIPOS>MOLECULE
molecule
   28    27     1     0     0
SMALL
bcc


@<TRIPOS>ATOM
      1 S            0.0000     0.0000     0.0000 sh         1 L06      -0.317900
      2 C1           1.8140     0.0000     0.0000 c3         1 L06       0.058700
      3 C2           2.3240     0.0000     1.4420 c3         1 L06      -0.163700
      4 C3           3.8500     0.1260     1.4440 c3         1 L06      -0.043400
      5 C4           4.3480     0.2520     2.8840 c3         1 L06      -0.104400
      6 C5           5.8740     0.3770     2.8870 c3         1 L06       0.232800
      7 N6           6.3520     0.4970     4.2660 nu         1 L06      -0.828200
      8 C7           7.6980     0.6230     4.5180 c2         1 L06       0.681100
      9 N8           8.5480     0.6350     3.5300 n2         1 L06      -0.800100
     10 N9           8.1470     0.7360     5.8130 nz         1 L06      -0.808600
     11 C10          1.9260    -1.2880     2.1150 c          1 L06       0.886600
     12 O11          0.6280    -1.6110     2.2310 o          1 L06      -0.827300
     13 O12          2.7750    -2.0280     2.5530 o          1 L06      -0.827300
     14 HS          -0.4430     0.3080    -1.2130 hs         1 L06       0.127800
     15 H11          2.1760    -0.8840    -0.5110 h1         1 L06       0.035700
     16 H12A         2.1760     0.8850    -0.5110 h1         1 L06       0.035700
     17 H2           1.8920     0.8360     1.9780 hc         1 L06       0.055700
     18 H31          4.1400     1.0060     0.8830 hc         1 L06       0.033700
     19 H32          4.2850    -0.7540     0.9860 hc         1 L06       0.033700
     20 H41          4.0580    -0.6280     3.4450 hc         1 L06       0.073200
     21 H42          3.9130     1.1320     3.3420 hc         1 L06       0.073200
     22 H51          6.1650     1.2580     2.3260 h1         1 L06       0.067200
     23 H52          6.3090    -0.5020     2.4290 h1         1 L06       0.067200
     24 HN6          5.7000     0.4850     5.0250 hn         1 L06       0.456800
     25 HN8          9.5280     0.7270     3.7140 hn         1 L06       0.422400
     26 HN91         9.0410     1.1840     5.8180 hn         1 L06       0.460133
     27 HN92         7.4970     1.2800     6.3450 hn         1 L06       0.460133
     28 H93          8.2280    -0.1760     6.2180 hn         1 L06       0.460133
@<TRIPOS>BOND
     1     1     2 1
     2     1    14 1
     3     2     3 1
     4     2    15 1
     5     2    16 1
     6     3     4 1
     7     3    11 1
     8     3    17 1
     9     4     5 1
    10     4    18 1
    11     4    19 1
    12     5     6 1
    13     5    20 1
    14     5    21 1
    15     6     7 1
    16     6    22 1
    17     6    23 1
    18     7     8 1
    19     7    24 1
    20     8     9 2
    21     8    10 1
    22     9    25 1
    23    10    26 1
    24    10    27 1
    25    11    12 1
    26    11    13 1
    27    28    10 1
@<TRIPOS>SUBSTRUCTURE
     1 L06         1 TEMP              0 ****  ****    0 ROOT
