@<TRIPOS>MOLECULE
L07
   30    32     1     0     0
SMALL
bcc


@<TRIPOS>ATOM
      1 C7           0.0000     0.0000     0.0000 c3         1 L07      -0.029400
      2 C8           1.5300     0.0000     0.0000 c3         1 L07       0.007900
      3 C12         -8.1730     0.0220     1.4420 ca         1 L07      -0.137300
      4 C11         -8.5740     1.3250     1.4420 ca         1 L07      -0.094000
      5 C10         -7.6450     2.3600     1.4430 ca         1 L07      -0.093000
      6 C9          -6.3060     2.0970     1.4430 ca         1 L07      -0.087000
      7 N2          -2.7390    -1.0570     1.4430 nc         1 L07      -0.422100
      8 N1          -6.3800    -1.5570     1.4470 nb         1 L07      -0.575000
      9 N           -4.7660    -3.2250     1.4470 nv         1 L07      -0.652500
     10 C2          -5.8630     0.7710     1.4420 ca         1 L07      -0.092300
     11 C3          -4.4430     0.4360     1.4420 ca         1 L07      -0.003100
     12 C4          -4.0730    -0.9070     1.4430 ca         1 L07      -0.047900
     13 C5          -2.0160     0.0000     1.4440 cd         1 L07       0.358200
     14 C6          -0.5100     0.0000     1.4430 c3         1 L07      -0.019700
     15 C1          -6.8050    -0.2860     1.4410 ca         1 L07       0.378600
     16 C           -5.1120    -1.8840     1.4420 ca         1 L07       0.558200
     17 S           -2.9790     1.4100     1.4440 ss         1 L07      -0.163100
     18 H1          -0.3610    -0.8850    -0.5110 hc         1 L07       0.020200
     19 H2          -0.3610     0.8850    -0.5110 hc         1 L07       0.020200
     20 H3           1.8910    -0.8910     0.4990 hc         1 L07       0.002700
     21 H4           1.8910     0.0140    -1.0210 hc         1 L07       0.002700
     22 H5           1.8910     0.8780     0.5230 hc         1 L07       0.002700
     23 H6          -8.9090    -0.7730     1.4420 ha         1 L07       0.119000
     24 H7          -9.6320     1.5580     1.4420 ha         1 L07       0.105000
     25 H8          -7.9890     3.3880     1.4430 ha         1 L07       0.105000
     26 H9          -5.5910     2.9110     1.4440 ha         1 L07       0.114000
     27 H10         -4.6560    -3.7160     0.5820 hn         1 L07       0.279800
     28 H11         -4.6590    -3.7100     2.3150 hn         1 L07       0.279800
     29 H12         -0.1480    -0.8850     1.9540 hc         1 L07       0.031200
     30 H13         -0.1480     0.8840     1.9540 hc         1 L07       0.031200
@<TRIPOS>BOND
     1     1     2 1   
     2     1    14 1   
     3     1    18 1   
     4     1    19 1   
     5     2    20 1   
     6     2    21 1   
     7     2    22 1   
     8     3     4 ar  
     9     3    15 ar  
    10     3    23 1   
    11     4     5 ar  
    12     4    24 1   
    13     5     6 ar  
    14     5    25 1   
    15     6    10 ar  
    16     6    26 1   
    17     7    12 1   
    18     7    13 2   
    19     8    15 ar  
    20     8    16 ar  
    21     9    16 1   
    22     9    27 1   
    23     9    28 1   
    24    10    11 ar  
    25    10    15 ar  
    26    11    12 ar  
    27    11    17 1   
    28    12    16 ar  
    29    13    14 1   
    30    13    17 1   
    31    14    29 1   
    32    14    30 1   
@<TRIPOS>SUBSTRUCTURE
     1 L07         1 TEMP              0 ****  ****    0 ROOT
