@<TRIPOS>MOLECULE
molecule
   30    32     1     0     0
SMALL
bcc


@<TRIPOS>ATOM
      1 C7           0.0000     0.0000     0.0000 c3         1 L07      -0.082400
      2 C8           1.5300     0.0000     0.0000 c3         1 L07      -0.092100
      3 C12         -8.1730     0.0220     1.4420 ca         1 L07      -0.161300
      4 C11         -8.5740     1.3250     1.4420 ca         1 L07      -0.121000
      5 C10         -7.6450     2.3600     1.4430 ca         1 L07      -0.125000
      6 C9          -6.3060     2.0970     1.4430 ca         1 L07      -0.112000
      7 N2          -2.7390    -1.0570     1.4430 nc         1 L07      -0.557100
      8 N1          -6.3800    -1.5570     1.4470 nb         1 L07      -0.706000
      9 N           -4.7660    -3.2250     1.4470 nv         1 L07      -1.074500
     10 C2          -5.8630     0.7710     1.4420 ca         1 L07      -0.112300
     11 C3          -4.4430     0.4360     1.4420 ca         1 L07      -0.043100
     12 C4          -4.0730    -0.9070     1.4430 ca         1 L07      -0.003900
     13 C5          -2.0160     0.0000     1.4440 cd         1 L07       0.380200
     14 C6          -0.5100     0.0000     1.4430 c3         1 L07      -0.085700
     15 C1          -6.8050    -0.2860     1.4410 ca         1 L07       0.432600
     16 C           -5.1120    -1.8840     1.4420 ca         1 L07       0.752200
     17 S           -2.9790     1.4100     1.4440 ss         1 L07      -0.065100
     18 H1          -0.3610    -0.8850    -0.5110 hc         1 L07       0.050700
     19 H2          -0.3610     0.8850    -0.5110 hc         1 L07       0.050700
     20 H3           1.8910    -0.8910     0.4990 hc         1 L07       0.036033
     21 H4           1.8910     0.0140    -1.0210 hc         1 L07       0.036033
     22 H5           1.8910     0.8780     0.5230 hc         1 L07       0.036033
     23 H6          -8.9090    -0.7730     1.4420 ha         1 L07       0.151000
     24 H7          -9.6320     1.5580     1.4420 ha         1 L07       0.134000
     25 H8          -7.9890     3.3880     1.4430 ha         1 L07       0.132000
     26 H9          -5.5910     2.9110     1.4440 ha         1 L07       0.135000
     27 H10         -4.6560    -3.7160     0.5820 hn         1 L07       0.441800
     28 H11         -4.6590    -3.7100     2.3150 hn         1 L07       0.441800
     29 H12         -0.1480    -0.8850     1.9540 hc         1 L07       0.066200
     30 H13         -0.1480     0.8840     1.9540 hc         1 L07       0.066200
@<TRIPOS>BOND
     1    17    13 1
     2    17    11 1
     3     6     5 ar
     4     6    10 ar
     5     5     4 ar
     6    14     1 1
     7    14    13 1
     8     1     2 1
     9    13     7 2
    10    10    11 ar
    11    10    15 ar
    12     4     3 ar
    13    11    12 ar
    14     7    12 1
    15     3    15 ar
    16    15     8 ar
    17    12    16 ar
    18     8    16 ar
    19    16     9 1
    20     1    18 1
    21     1    19 1
    22     2    20 1
    23     2    21 1
    24     2    22 1
    25     3    23 1
    26     4    24 1
    27     5    25 1
    28     6    26 1
    29     9    27 1
    30     9    28 1
    31    14    29 1
    32    14    30 1
@<TRIPOS>SUBSTRUCTURE
     1 L07         1 TEMP              0 ****  ****    0 ROOT
