@<TRIPOS>MOLECULE
molecule
   60    63     1     0     0
SMALL
bcc


@<TRIPOS>ATOM
      1 O4           0.0000     0.0000     0.0000 o          1 L08      -0.200500
      2 N3           1.2180     0.0000     0.0000 no         1 L08       0.294200
      3 C11          1.9580     0.0000     1.2820 ca         1 L08      -0.164200
      4 C10          3.3490    -0.0100     1.2820 ca         1 L08       0.068900
      5 C15          4.0470    -0.0090     2.4850 ca         1 L08      -0.150000
      6 C14          3.3610    -0.0040     3.6800 ca         1 L08      -0.059000
      7 C13          1.9660     0.0020     3.6820 cp         1 L08      -0.072000
      8 C12          1.2680     0.0010     2.4750 ca         1 L08      -0.036000
      9 C16          1.2270     0.0080     4.9670 cp         1 L08       0.012000
     10 C8           0.0690     0.7800     5.1260 ca         1 L08      -0.264300
     11 C35         -0.5910     0.7600     6.3350 ca         1 L08       0.446200
     12 N20         -0.1480     0.0250     7.3400 nb         1 L08      -0.731000
     13 C18          0.9420    -0.7210     7.2340 ca         1 L08       0.589200
     14 N1           1.3660    -1.4770     8.3210 nh         1 L08      -0.653300
     15 C19          0.4080    -1.2290     9.4050 c3         1 L08       0.129300
     16 C20          0.8010    -2.0540    10.6360 c3         1 L08       0.104500
     17 N2           2.1860    -1.7160    10.9970 n          1 L08      -0.499800
     18 C21          3.1990    -1.7260     9.9290 c3         1 L08       0.104500
     19 C22          2.6580    -0.9220     8.7420 c3         1 L08       0.129300
     20 C23          2.5180    -1.4060    12.2660 c          1 L08       0.662100
     21 O2           1.6690    -1.4030    13.1320 o          1 L08      -0.606100
     22 C24          3.9450    -1.0640    12.6100 c3         1 L08      -0.171100
     23 C17          1.6610    -0.7610     6.0470 ca         1 L08      -0.248300
     24 S1           4.2290    -0.0160    -0.2460 ss         1 L08      -0.020800
     25 C1           5.8780     0.1580     0.3500 ca         1 L08      -0.113100
     26 C2           6.3380     1.4020     0.7790 ca         1 L08       0.165100
     27 C3           7.6350     1.5330     1.2460 ca         1 L08      -0.238000
     28 C4           8.4720     0.4330     1.2820 ca         1 L08      -0.060000
     29 C5           8.0180    -0.8010     0.8520 ca         1 L08      -0.180000
     30 C6           6.7260    -0.9410     0.3840 ca         1 L08      -0.040000
     31 O7           5.5130     2.4830     0.7430 os         1 L08      -0.281900
     32 C9           6.2630     3.5910     1.2460 c3         1 L08       0.108400
     33 C33          5.3890     4.8460     1.2340 c3         1 L08      -0.096100
     34 O3           1.8280    -0.0000    -1.0550 o          1 L08      -0.200500
     35 H15          5.1300    -0.0150     2.4830 ha         1 L08       0.159000
     36 H14          3.9050    -0.0030     4.6170 ha         1 L08       0.142000
     37 H12          0.1850     0.0050     2.4750 ha         1 L08       0.170000
     38 H8          -0.3020     1.3860     4.3090 ha         1 L08       0.146000
     39 H35         -1.4870     1.3560     6.4640 h4         1 L08       0.029100
     40 H191         0.4170    -0.1760     9.6600 h1         1 L08       0.059450
     41 H192        -0.5850    -1.5190     9.0810 h1         1 L08       0.059450
     42 H201         0.7330    -3.1090    10.4030 h1         1 L08       0.064200
     43 H202         0.1410    -1.8130    11.4600 h1         1 L08       0.064200
     44 H211         3.3910    -2.7460     9.6190 h1         1 L08       0.064200
     45 H212         4.1130    -1.2700    10.2890 h1         1 L08       0.064200
     46 H221         3.3590    -0.9810     7.9180 h1         1 L08       0.059450
     47 H222         2.5260     0.1120     9.0380 h1         1 L08       0.059450
     48 H241         4.2300    -0.1500    12.1030 hc         1 L08       0.060033
     49 H242         4.5960    -1.8700    12.2930 hc         1 L08       0.060033
     50 H243         4.0360    -0.9260    13.6810 hc         1 L08       0.060033
     51 H17          2.5520    -1.3720     5.9640 ha         1 L08       0.148000
     52 H3           7.9950     2.4980     1.5820 ha         1 L08       0.148000
     53 H4           9.4860     0.5370     1.6480 ha         1 L08       0.136000
     54 H5           8.6780    -1.6600     0.8790 ha         1 L08       0.138000
     55 H6           6.3730    -1.9080     0.0480 ha         1 L08       0.149000
     56 H91          7.1340     3.7510     0.6210 h1         1 L08       0.041700
     57 H92          6.5810     3.3820     2.2600 h1         1 L08       0.041700
     58 H331         5.0130     5.0140     0.2320 hc         1 L08       0.050700
     59 H332         5.9780     5.7000     1.5460 hc         1 L08       0.050700
     60 H333         4.5570     4.7130     1.9140 hc         1 L08       0.050700
@<TRIPOS>BOND
     1     1     2 1
     2     2     3 1
     3     2    34 1
     4     3     4 ar
     5     3     8 ar
     6     4     5 ar
     7     4    24 1
     8     5     6 ar
     9     5    35 1
    10     6     7 ar
    11     6    36 1
    12     7     8 ar
    13     7     9 1
    14     8    37 1
    15     9    10 ar
    16     9    23 ar
    17    10    11 ar
    18    10    38 1
    19    11    12 ar
    20    11    39 1
    21    12    13 ar
    22    13    14 1
    23    13    23 ar
    24    14    15 1
    25    14    19 1
    26    15    16 1
    27    15    40 1
    28    15    41 1
    29    16    17 1
    30    16    42 1
    31    16    43 1
    32    17    18 1
    33    17    20 1
    34    18    19 1
    35    18    44 1
    36    18    45 1
    37    19    46 1
    38    19    47 1
    39    20    21 2
    40    20    22 1
    41    22    48 1
    42    22    49 1
    43    22    50 1
    44    23    51 1
    45    24    25 1
    46    25    26 ar
    47    25    30 ar
    48    26    27 ar
    49    26    31 1
    50    27    28 ar
    51    27    52 1
    52    28    29 ar
    53    28    53 1
    54    29    30 ar
    55    29    54 1
    56    30    55 1
    57    31    32 1
    58    32    33 1
    59    32    56 1
    60    32    57 1
    61    33    58 1
    62    33    59 1
    63    33    60 1
@<TRIPOS>SUBSTRUCTURE
     1 L08         1 TEMP              0 ****  ****    0 ROOT
