@<TRIPOS>MOLECULE
molecule
   50    52     1     0     0
SMALL
bcc


@<TRIPOS>ATOM
      1 C1           0.0000     0.0000     0.0000 c3         1 L09      -0.080100
      2 C2           1.5300     0.0000     0.0000 c3         1 L09      -0.084300
      3 C3           2.0410     0.0000     1.4420 c3         1 L09      -0.080100
      4 C4           2.0390    -1.2490    -0.7230 c3         1 L09      -0.080100
      5 C5           2.0320     1.2300    -0.7110 cc         1 L09       0.363600
      6 C6           3.3730     1.5710    -0.9080 cc         1 L09      -0.343300
      7 C7           3.4080     2.7490    -1.5880 cd         1 L09       0.064300
      8 N8           4.5540     3.4370    -1.9860 ns         1 L09      -0.469100
      9 C9           5.7730     2.9400    -1.6980 c          1 L09       0.791100
     10 O10          5.8740     1.8910    -1.0930 o          1 L09      -0.616100
     11 N11          6.8800     3.6050    -2.0830 ns         1 L09      -0.490100
     12 C12          8.1420     3.0320    -1.8920 ca         1 L09       0.073600
     13 C13          8.3190     1.6650    -2.0670 ca         1 L09      -0.114000
     14 C14          9.5660     1.1020    -1.8790 ca         1 L09      -0.100000
     15 C15         10.6380     1.8980    -1.5170 ca         1 L09       0.016400
     16 Cl16        12.2050     1.1870    -1.2820 cl         1 L09      -0.108400
     17 C17         10.4650     3.2600    -1.3420 ca         1 L09      -0.072300
     18 C18         11.6350     4.1240    -0.9490 c3         1 L09       0.162700
     19 O19         11.2060     5.4810    -0.8310 os         1 L09      -0.298900
     20 C20         12.2980     6.2080    -0.4760 ca         1 L09      -0.006200
     21 C21         12.1990     7.5820    -0.2830 ca         1 L09      -0.124000
     22 C22         13.3390     8.2810     0.0790 ca         1 L09      -0.219300
     23 C23         14.5300     7.5950     0.2350 ca         1 L09       0.384200
     24 N24         14.5900     6.2920     0.0440 nb         1 L09      -0.655000
     25 C25         13.5270     5.5890    -0.2950 ca         1 L09       0.332200
     26 C26          9.2210     3.8290    -1.5350 ca         1 L09      -0.129000
     27 N27          2.1290     3.1300    -1.8080 na         1 L09      -0.073600
     28 N28          1.2870     2.1590    -1.2520 nd         1 L09      -0.507800
     29 H1C1        -0.3610     0.0010    -1.0210 hc         1 L09       0.039144
     30 H1C2        -0.3610     0.8840     0.5110 hc         1 L09       0.039144
     31 H1C3        -0.3610    -0.8850     0.5100 hc         1 L09       0.039144
     32 H3C1         1.5110    -0.7530     2.0130 hc         1 L09       0.039144
     33 H3C2         3.1010    -0.2210     1.4490 hc         1 L09       0.039144
     34 H3C3         1.8720     0.9740     1.8850 hc         1 L09       0.039144
     35 H4C1         1.5210    -2.1220    -0.3450 hc         1 L09       0.039144
     36 H4C2         3.1030    -1.3570    -0.5490 hc         1 L09       0.039144
     37 H4C3         1.8550    -1.1510    -1.7860 hc         1 L09       0.039144
     38 H6           4.2300     1.0330    -0.5210 ha         1 L09       0.199000
     39 H8           4.4720     4.3020    -2.4820 hn         1 L09       0.315500
     40 H11          6.7970     4.4910    -2.5410 hn         1 L09       0.321500
     41 H13          7.4800     1.0420    -2.3510 ha         1 L09       0.167000
     42 H14          9.7040     0.0370    -2.0150 ha         1 L09       0.152000
     43 H181        12.0300     3.7860     0.0010 h1         1 L09       0.064200
     44 H182        12.4060     4.0540    -1.7070 h1         1 L09       0.064200
     45 H21         11.2530     8.0930    -0.4120 ha         1 L09       0.148000
     46 H22         13.2990     9.3510     0.2380 ha         1 L09       0.142000
     47 H23         15.4250     8.1370     0.5150 h4         1 L09       0.026100
     48 H25         13.6160     4.5200    -0.4430 h4         1 L09       0.035100
     49 H26          9.0860     4.8950    -1.3970 ha         1 L09       0.156000
     50 H27          1.8360     3.9580    -2.2880 hn         1 L09       0.320700
@<TRIPOS>BOND
     1     1     2 1
     2     1    29 1
     3     1    30 1
     4     1    31 1
     5     2     3 1
     6     2     4 1
     7     2     5 1
     8     3    32 1
     9     3    33 1
    10     3    34 1
    11     4    35 1
    12     4    36 1
    13     4    37 1
    14     5     6 1
    15     5    28 2
    16     6     7 2
    17     6    38 1
    18     7     8 1
    19     7    27 1
    20     8     9 1
    21     8    39 1
    22     9    10 2
    23     9    11 1
    24    11    12 1
    25    11    40 1
    26    12    13 ar
    27    12    26 ar
    28    13    14 ar
    29    13    41 1
    30    14    15 ar
    31    14    42 1
    32    15    16 1
    33    15    17 ar
    34    17    18 1
    35    17    26 ar
    36    18    19 1
    37    18    43 1
    38    18    44 1
    39    19    20 1
    40    20    21 ar
    41    20    25 ar
    42    21    22 ar
    43    21    45 1
    44    22    23 ar
    45    22    46 1
    46    23    24 ar
    47    23    47 1
    48    24    25 ar
    49    25    48 1
    50    26    49 1
    51    27    28 1
    52    27    50 1
@<TRIPOS>SUBSTRUCTURE
     1 L09         1 TEMP              0 ****  ****    0 ROOT
