@<TRIPOS>MOLECULE
L0B
   52    54     1     0     0
SMALL
bcc


@<TRIPOS>ATOM
      1 O1           0.0000     0.0000     0.0000 o          1 L0B      -0.532100
      2 C3           1.2120     0.0000     0.0000 c          1 L0B       0.621700
      3 C21         -4.8980     6.0690     2.1130 ca         1 L0B      -0.101000
      4 C10         -3.5870     6.1570     1.6870 ca         1 L0B      -0.105500
      5 C19         -2.7770     5.0380     1.7060 ca         1 L0B      -0.086500
      6 C17         -3.2790     3.8300     2.1510 ca         1 L0B      -0.142300
      7 C18         -4.5900     3.7410     2.5790 ca         1 L0B      -0.086500
      8 C20         -5.3990     4.8620     2.5640 ca         1 L0B      -0.105500
      9 C11         -0.7880     1.2750     3.5370 c3         1 L0B       0.138500
     10 C13         -0.0800     1.1870     4.8910 c3         1 L0B      -0.071400
     11 C15          0.7360    -0.1070     4.9510 c3         1 L0B      -0.016400
     12 C12          1.7340    -0.1260     3.7890 c3         1 L0B      -0.073400
     13 C9           0.9720    -0.0010     2.4680 c3         1 L0B       0.141500
     14 N1           0.2080     1.2530     2.4600 n3         1 L0B      -0.493600
     15 C22          1.1030     2.4150     2.5450 c3         1 L0B       0.141100
     16 C8           1.9660     0.0000     1.3040 c3         1 L0B      -0.129400
     17 C16         -2.3970     2.6080     2.1660 c3         1 L0B       0.254400
     18 O2          -1.5040     2.6490     1.0510 oh         1 L0B      -0.562800
     19 C4           3.3470    -0.0060    -1.2790 ca         1 L0B      -0.054500
     20 C1           1.9480    -0.0060    -1.2750 ca         1 L0B      -0.180600
     21 C2           1.2520    -0.0110    -2.4890 ca         1 L0B      -0.054500
     22 C5           1.9480    -0.0160    -3.6780 ca         1 L0B      -0.117500
     23 C6           3.3330    -0.0160    -3.6740 ca         1 L0B      -0.075000
     24 C7           4.0280    -0.0050    -2.4780 ca         1 L0B      -0.117500
     25 H81C         2.5880     0.8850     1.3620 hc         1 L0B       0.040700
     26 H82C         2.5890    -0.8840     1.3610 hc         1 L0B       0.040700
     27 H2           0.1690    -0.0110    -2.4940 ha         1 L0B       0.114500
     28 H4           3.8930     0.0030    -0.3430 ha         1 L0B       0.114500
     29 H5           1.4110    -0.0230    -4.6180 ha         1 L0B       0.105000
     30 H6           3.8740    -0.0180    -4.6130 ha         1 L0B       0.101000
     31 H7           5.1120    -0.0050    -2.4830 ha         1 L0B       0.105000
     32 H9           0.2910    -0.8370     2.3650 h1         1 L0B       0.048700
     33 H121         2.4210     0.7050     3.8900 hc         1 L0B       0.022700
     34 H122         2.2830    -1.0600     3.8010 hc         1 L0B       0.022700
     35 H151         0.0700    -0.9580     4.8690 hc         1 L0B       0.014700
     36 H152         1.2750    -0.1510     5.8900 hc         1 L0B       0.014700
     37 H131         0.5830     2.0360     5.0080 hc         1 L0B       0.022700
     38 H132        -0.8170     1.1850     5.6850 hc         1 L0B       0.022700
     39 H11         -1.4560     0.4290     3.4260 h1         1 L0B       0.038700
     40 H141        -2.2630     2.6340     4.3110 hc         1 L0B       0.030700
     41 H142        -0.9100     3.4210     3.4880 hc         1 L0B       0.030700
     42 H221         1.0940     2.9480     1.6020 h1         1 L0B       0.012367
     43 H222         0.7650     3.0740     3.3350 h1         1 L0B       0.012367
     44 H223         2.1110     2.0800     2.7600 h1         1 L0B       0.012367
     45 H16         -3.0120     1.7180     2.1030 h1         1 L0B       0.008700
     46 HA          -1.9950     2.5490     0.2520 ho         1 L0B       0.388000
     47 H18         -4.9830     2.7940     2.9300 ha         1 L0B       0.111500
     48 H19         -1.7490     5.1070     1.3710 ha         1 L0B       0.111500
     49 H20         -6.4270     4.7930     2.8990 ha         1 L0B       0.101500
     50 H10         -3.1950     7.1040     1.3350 ha         1 L0B       0.101500
     51 C14         -1.5890     2.5770     3.4650 c3         1 L0B      -0.040400
     52 H21         -5.5320     6.9480     2.1000 ha         1 L0B       0.101000
@<TRIPOS>BOND
     1     1     2 2   
     2     2    16 1   
     3     2    20 1   
     4     3     4 ar  
     5     3     8 ar  
     6     3    52 1   
     7     4     5 ar  
     8     4    50 1   
     9     5     6 ar  
    10     5    48 1   
    11     6     7 ar  
    12     6    17 1   
    13     7     8 ar  
    14     7    47 1   
    15     8    49 1   
    16     9    10 1   
    17     9    14 1   
    18     9    39 1   
    19     9    51 1   
    20    10    11 1   
    21    10    37 1   
    22    10    38 1   
    23    11    12 1   
    24    11    35 1   
    25    11    36 1   
    26    12    13 1   
    27    12    33 1   
    28    12    34 1   
    29    13    14 1   
    30    13    16 1   
    31    13    32 1   
    32    14    15 1   
    33    15    42 1   
    34    15    43 1   
    35    15    44 1   
    36    16    25 1   
    37    16    26 1   
    38    17    18 1   
    39    17    45 1   
    40    17    51 1   
    41    18    46 1   
    42    19    20 ar  
    43    19    24 ar  
    44    19    28 1   
    45    20    21 ar  
    46    21    22 ar  
    47    21    27 1   
    48    22    23 ar  
    49    22    29 1   
    50    23    24 ar  
    51    23    30 1   
    52    24    31 1   
    53    40    51 1   
    54    41    51 1   
@<TRIPOS>SUBSTRUCTURE
     1 L0B         1 TEMP              0 ****  ****    0 ROOT
