@<TRIPOS>MOLECULE
L0C
   53    57     1     0     0
SMALL
bcc


@<TRIPOS>ATOM
      1 F1           0.0000     0.0000     0.0000 f          1 L0C      -0.123900
      2 C2           1.3470     0.0000     0.0000 ca         1 L0C       0.134900
      3 C3           2.0160     0.0000     1.2040 ca         1 L0C      -0.142000
      4 C4           3.3950    -0.0000     1.2090 ca         1 L0C      -0.033000
      5 C5           4.1050    -0.0000     0.0010 ca         1 L0C      -0.187600
      6 C6           3.4050     0.0020    -1.2080 ca         1 L0C      -0.033000
      7 C7           2.0250     0.0010    -1.2060 ca         1 L0C      -0.142000
      8 C8           5.6010     0.0040     0.0120 c          1 L0C       0.594700
      9 O9           6.2390     0.1440    -1.0140 o          1 L0C      -0.624100
     10 N10          6.1760    -0.1490     1.2200 ns         1 L0C       0.002900
     11 C11          7.4940    -0.0110     1.5210 cc         1 L0C      -0.191700
     12 C12          8.4450     0.6830     0.8750 cd         1 L0C      -0.313300
     13 N13          9.5900     0.5160     1.5630 na         1 L0C       0.569400
     14 N15          9.4120    -0.2710     2.6430 nd         1 L0C      -0.682800
     15 C16          8.1260    -0.5870     2.6170 cc         1 L0C       0.250000
     16 C17          7.5830    -1.4460     3.6460 cc         1 L0C       0.243800
     17 N18          6.2880    -1.6640     3.8930 nd         1 L0C      -0.562100
     18 C19          6.2150    -2.5510     4.9450 ca         1 L0C       0.095400
     19 C20          5.1370    -3.1120     5.6070 ca         1 L0C      -0.001000
     20 C21          5.3460    -3.9920     6.6540 ca         1 L0C      -0.163000
     21 C22          6.6430    -4.3220     7.0570 ca         1 L0C      -0.183300
     22 C23          6.8960    -5.2910     8.1880 c3         1 L0C       0.093100
     23 N24          6.2630    -4.9160     9.4950 nx         1 L0C      -0.010400
     24 C26          6.3950    -6.0190    10.4960 c3         1 L0C      -0.053200
     25 C27          5.7700    -5.5990    11.8150 c3         1 L0C       0.194400
     26 O28          4.3860    -5.2450    11.6450 os         1 L0C      -0.353600
     27 C29          4.2530    -4.1680    10.6970 c3         1 L0C       0.194400
     28 C30          4.8240    -4.5510     9.3420 c3         1 L0C      -0.053200
     29 C31          7.7100    -3.7490     6.3760 ca         1 L0C      -0.022000
     30 C32          7.5010    -2.8690     5.3310 ca         1 L0C      -0.283200
     31 N33          8.3260    -2.1750     4.5100 na         1 L0C       0.338700
     32 H14         10.4660     0.9230     1.3030 hn         1 L0C       0.143700
     33 H25          6.7440    -4.1160     9.8560 hn         1 L0C       0.254800
     34 H34          9.3260    -2.1980     4.5390 hn         1 L0C       0.144700
     35 H35          1.4650     0.0000     2.1370 ha         1 L0C       0.126500
     36 H36          3.9310    -0.0010     2.1500 ha         1 L0C       0.121000
     37 H37          3.9460     0.0020    -2.1470 ha         1 L0C       0.121000
     38 H38          1.4770     0.0030    -2.1410 ha         1 L0C       0.126500
     39 H39          5.5680    -0.3910     1.9770 hn         1 L0C       0.195500
     40 H40          8.3150     1.2670    -0.0280 h4         1 L0C       0.187000
     41 H41          4.1270    -2.8640     5.3030 ha         1 L0C       0.125000
     42 H42          4.4970    -4.4440     7.1530 ha         1 L0C       0.113000
     43 H43          7.9660    -5.3690     8.3370 hx         1 L0C       0.067700
     44 H44          6.5200    -6.2640     7.8940 hx         1 L0C       0.067700
     45 H45          7.4440    -6.2390    10.6500 hx         1 L0C       0.092700
     46 H46          5.8880    -6.9010    10.1240 hx         1 L0C       0.092700
     47 H47          5.8410    -6.4210    12.5180 h1         1 L0C       0.045200
     48 H48          6.3090    -4.7440    12.2060 h1         1 L0C       0.045200
     49 H49          3.2030    -3.9260    10.5830 h1         1 L0C       0.045200
     50 H50          4.7840    -3.3000    11.0720 h1         1 L0C       0.045200
     51 H51          4.7360    -3.7120     8.6640 hx         1 L0C       0.092700
     52 H52          4.2780    -5.4000     8.9490 hx         1 L0C       0.092700
     53 H53          8.7230    -3.9920     6.6730 ha         1 L0C       0.105000
@<TRIPOS>BOND
     1     1     2 1   
     2     2     3 ar  
     3     2     7 ar  
     4     3     4 ar  
     5     3    35 1   
     6     4     5 ar  
     7     4    36 1   
     8     5     6 ar  
     9     5     8 1   
    10     6     7 ar  
    11     6    37 1   
    12     7    38 1   
    13     8     9 2   
    14     8    10 1   
    15    10    11 1   
    16    10    39 1   
    17    11    12 2   
    18    11    15 1   
    19    12    13 1   
    20    12    40 1   
    21    13    14 1   
    22    13    32 1   
    23    14    15 2   
    24    15    16 1   
    25    16    17 2   
    26    16    31 1   
    27    17    18 1   
    28    18    19 ar  
    29    18    30 ar  
    30    19    20 ar  
    31    19    41 1   
    32    20    21 ar  
    33    20    42 1   
    34    21    22 1   
    35    21    29 ar  
    36    22    23 1   
    37    22    43 1   
    38    22    44 1   
    39    23    24 1   
    40    23    28 1   
    41    23    33 1   
    42    24    25 1   
    43    24    45 1   
    44    24    46 1   
    45    25    26 1   
    46    25    47 1   
    47    25    48 1   
    48    26    27 1   
    49    27    28 1   
    50    27    49 1   
    51    27    50 1   
    52    28    51 1   
    53    28    52 1   
    54    29    30 ar  
    55    29    53 1   
    56    30    31 1   
    57    31    34 1   
@<TRIPOS>SUBSTRUCTURE
     1 L0C         1 TEMP              0 ****  ****    0 ROOT
