@<TRIPOS>MOLECULE
L0D
   22    24     1     0     0
SMALL
bcc


@<TRIPOS>ATOM
      1 C1         -0.0360    0.0050   -0.0050 cc        1 L0D     -0.157300
      2 C2          1.3620    0.0020   -0.0920 cd        1 L0D     -0.236300
      3 C3          1.8120    0.0070    1.2850 cd        1 L0D      0.280000
      4 N4          0.7330    0.0130    2.1330 nc        1 L0D     -0.515800
      5 N5         -0.3460    0.0110    1.3610 na        1 L0D     -0.008600
      6 C7          3.2000    0.0060    1.7120 cd        1 L0D      0.387800
      7 N8          4.2710   -0.0020    0.8820 nc        1 L0D     -0.559100
      8 C9          5.3940    0.0010    1.7280 ca        1 L0D      0.066400
      9 C10         6.7680   -0.0050    1.4410 ca        1 L0D     -0.070000
     10 C11         7.6610   -0.0000    2.5000 ca        1 L0D     -0.155000
     11 C12         7.2260    0.0090    3.8390 ca        1 L0D     -0.113000
     12 C13         5.8810    0.0150    4.1710 ca        1 L0D     -0.135000
     13 C14         4.9580    0.0110    3.1170 ca        1 L0D     -0.072200
     14 N15         3.5640    0.0140    3.0800 na        1 L0D     -0.266300
     15 HN5        -1.2510    0.0150    1.7700 hn        1 L0D      0.324700
     16 HN15        2.9490    0.0200    3.8490 hn        1 L0D      0.316700
     17 H1         -0.8070    0.0030   -0.7740 h4        1 L0D      0.181000
     18 H2          1.9920   -0.0030   -0.9750 ha        1 L0D      0.188000
     19 H10         7.1150   -0.0120    0.3980 ha        1 L0D      0.146000
     20 H11         8.7420   -0.0040    2.2960 ha        1 L0D      0.132000
     21 H12         7.9790    0.0130    4.6420 ha        1 L0D      0.131000
     22 H13         5.5490    0.0230    5.2170 ha        1 L0D      0.135000
@<TRIPOS>BOND
     1    1    2 2   
     2    1    5 1   
     3    1   17 1   
     4    2    3 1   
     5    2   18 1   
     6    3    4 2   
     7    3    6 1   
     8    4    5 1   
     9    5   15 1   
    10    6    7 2   
    11    6   14 1   
    12    7    8 1   
    13    8    9 ar  
    14    8   13 ar  
    15    9   10 ar  
    16    9   19 1   
    17   10   11 ar  
    18   10   20 1   
    19   11   12 ar  
    20   11   21 1   
    21   12   13 ar  
    22   12   22 1   
    23   13   14 1   
    24   14   16 1   
@<TRIPOS>SUBSTRUCTURE
     1 L0D         1 TEMP              0 ****  ****    0 ROOT
