@<TRIPOS>MOLECULE
molecule
   22    24     1     0     0
SMALL
bcc


@<TRIPOS>ATOM
      1 C1           0.0000     0.0000     0.0000 cc         1 L0D      -0.120300
      2 C2           1.3500     0.0000     0.0000 cd         1 L0D      -0.298300
      3 C3           1.7820     0.0000     1.3420 cd         1 L0D       0.341000
      4 N4           0.7130    -0.0010     2.1120 nc         1 L0D      -0.516800
      5 N5          -0.4180    -0.0010     1.2850 na         1 L0D      -0.038600
      6 C7           3.1870    -0.0010     1.8040 cd         1 L0D       0.395800
      7 N8           4.2390    -0.0000     1.0210 nc         1 L0D      -0.589100
      8 C9           5.3660    -0.0000     1.7720 ca         1 L0D       0.093400
      9 C10          6.7290    -0.0000     1.4590 ca         1 L0D      -0.069000
     10 C11          7.6630    -0.0000     2.4700 ca         1 L0D      -0.147000
     11 C12          7.2630    -0.0010     3.7990 ca         1 L0D      -0.113000
     12 C13          5.9230    -0.0010     4.1270 ca         1 L0D      -0.129000
     13 C14          4.9670    -0.0010     3.1210 ca         1 L0D      -0.090200
     14 N15          3.5850     0.0040     3.1130 na         1 L0D      -0.250300
     15 HN5         -1.3710    -0.0010     1.5920 hn         1 L0D       0.332700
     16 HN15         2.9930     0.1470     3.9080 hn         1 L0D       0.313700
     17 H1          -0.6360     0.0000    -0.8770 h4         1 L0D       0.175000
     18 H2           1.9870     0.0010    -0.8760 ha         1 L0D       0.176000
     19 H10          7.0490     0.0010     0.4240 ha         1 L0D       0.142000
     20 H11          8.7180     0.0000     2.2270 ha         1 L0D       0.133000
     21 H12          8.0080    -0.0010     4.5850 ha         1 L0D       0.132000
     22 H13          5.6190    -0.0020     5.1660 ha         1 L0D       0.127000
@<TRIPOS>BOND
     1     1     2 2
     2     1     5 1
     3     1    17 1
     4     2     3 1
     5     2    18 1
     6     3     4 2
     7     3     6 1
     8     4     5 1
     9     5    15 1
    10     6     7 2
    11     6    14 1
    12     7     8 1
    13     8     9 ar
    14     8    13 ar
    15     9    10 ar
    16     9    19 1
    17    10    11 ar
    18    10    20 1
    19    11    12 ar
    20    11    21 1
    21    12    13 ar
    22    12    22 1
    23    13    14 1
    24    14    16 1
@<TRIPOS>SUBSTRUCTURE
     1 L0D         1 TEMP              0 ****  ****    0 ROOT
