@<TRIPOS>MOLECULE
molecule
   55    59     1     0     0
SMALL
bcc


@<TRIPOS>ATOM
      1 O1           0.0000     0.0000     0.0000 o          1 L0E      -0.616100
      2 C2           1.2080     0.0000     0.0000 c          1 L0E       0.810100
      3 N3           1.9510     0.0000     1.1390 ns         1 L0E      -0.461100
      4 C4           1.4910    -0.0460     2.4370 cc         1 L0E      -0.048700
      5 C5           0.2670    -0.3580     2.9090 cd         1 L0E      -0.147300
      6 N6           0.3270    -0.2540     4.2470 na         1 L0E       0.020400
      7 N8           1.5510     0.1140     4.6650 nd         1 L0E      -0.502800
      8 C9           2.2480     0.2330     3.5620 cc         1 L0E       0.248000
      9 C10          3.6200     0.6390     3.6640 cc         1 L0E       0.443800
     10 N11          4.3370     1.1170     2.6990 nd         1 L0E      -0.609100
     11 C12          5.5620     1.3960     3.1810 ca         1 L0E       0.092400
     12 C13          6.6890     1.9130     2.5690 ca         1 L0E      -0.035000
     13 C14          7.8600     2.1200     3.2910 ca         1 L0E      -0.203300
     14 C15          9.0850     2.6790     2.6140 c3         1 L0E       0.187100
     15 N16         10.0530     1.5960     2.2340 nx         1 L0E      -0.673400
     16 C18          9.5110     0.7570     1.1310 c3         1 L0E       0.075800
     17 C19         10.5290    -0.3050     0.7660 c3         1 L0E       0.102400
     18 O20         10.8660    -1.1270     1.9020 os         1 L0E      -0.366600
     19 C21         11.3860    -0.3190     2.9670 c3         1 L0E       0.102400
     20 C22         10.3720     0.7230     3.3950 c3         1 L0E       0.075800
     21 C23          7.8780     1.7890     4.6520 ca         1 L0E      -0.120000
     22 C24          6.7530     1.2750     5.2610 ca         1 L0E      -0.099000
     23 C25          5.5940     1.0760     4.5300 ca         1 L0E      -0.064200
     24 N26          4.3500     0.6060     4.7920 na         1 L0E      -0.221300
     25 N28          1.8860     0.0000    -1.1890 ns         1 L0E      -0.516100
     26 C29          3.2980     0.0160    -1.3920 ca         1 L0E       0.064600
     27 C30          3.8780     0.9710    -2.2100 ca         1 L0E      -0.143000
     28 C31          5.2380     0.9830    -2.4010 ca         1 L0E      -0.110500
     29 C32          6.0290     0.0500    -1.7850 ca         1 L0E      -0.153000
     30 C33          5.4680    -0.9000    -0.9760 ca         1 L0E      -0.110500
     31 C34          4.1110    -0.9240    -0.7760 ca         1 L0E      -0.143000
     32 H7          -0.4460    -0.4290     4.8590 hn         1 L0E       0.342700
     33 H17         10.9020     2.0210     1.9170 hn         1 L0E       0.437800
     34 H27          4.0260     0.2860     5.6830 hn         1 L0E       0.327700
     35 H35          2.9440     0.0380     1.0210 hn         1 L0E       0.340500
     36 H36         -0.5990    -0.6380     2.3220 h4         1 L0E       0.218000
     37 H37          6.6580     2.1660     1.5160 ha         1 L0E       0.145000
     38 H38          9.5760     3.3700     3.2880 hx         1 L0E       0.101200
     39 H39          8.7820     3.2110     1.7200 hx         1 L0E       0.101200
     40 H40          8.5940     0.2810     1.4580 hx         1 L0E       0.114950
     41 H41          9.3140     1.3800     0.2670 hx         1 L0E       0.114950
     42 H42         11.4270     0.1780     0.4020 h1         1 L0E       0.086950
     43 H43         10.1170    -0.9340    -0.0140 h1         1 L0E       0.086950
     44 H44         11.6210    -0.9550     3.8120 h1         1 L0E       0.086950
     45 H45         12.2860     0.1790     2.6280 h1         1 L0E       0.086950
     46 H46         10.7870     1.3230     4.1950 hx         1 L0E       0.114950
     47 H47          9.4690     0.2300     3.7350 hx         1 L0E       0.114950
     48 H48          8.7800     1.9430     5.2310 ha         1 L0E       0.132000
     49 H49          6.7770     1.0220     6.3140 ha         1 L0E       0.151000
     50 H50          1.3230    -0.0130    -2.0160 hn         1 L0E       0.348500
     51 H51          3.2570     1.7110    -2.7000 ha         1 L0E       0.146000
     52 H52          5.6870     1.7330    -3.0410 ha         1 L0E       0.131500
     53 H53          7.1010     0.0650    -1.9390 ha         1 L0E       0.115000
     54 H54          6.0980    -1.6360    -0.4920 ha         1 L0E       0.131500
     55 H55          3.6730    -1.6790    -0.1350 ha         1 L0E       0.146000
@<TRIPOS>BOND
     1     2     1 2
     2    25     2 1
     3     2     3 1
     4    35     3 1
     5     3     4 1
     6     8     4 1
     7     4     5 2
     8     5    36 1
     9     5     6 1
    10     7     6 1
    11     6    32 1
    12     8     7 2
    13     9     8 1
    14    10     9 2
    15     9    24 1
    16    11    10 1
    17    12    11 ar
    18    11    23 ar
    19    13    12 ar
    20    37    12 1
    21    14    13 1
    22    13    21 ar
    23    15    14 1
    24    38    14 1
    25    39    14 1
    26    33    15 1
    27    15    16 1
    28    15    20 1
    29    17    16 1
    30    41    16 1
    31    16    40 1
    32    43    17 1
    33    17    42 1
    34    17    18 1
    35    19    18 1
    36    45    19 1
    37    19    44 1
    38    19    20 1
    39    20    46 1
    40    20    47 1
    41    48    21 1
    42    21    22 ar
    43    22    49 1
    44    22    23 ar
    45    23    24 1
    46    24    34 1
    47    26    25 1
    48    50    25 1
    49    27    26 ar
    50    31    26 ar
    51    28    27 ar
    52    27    51 1
    53    52    28 1
    54    29    28 ar
    55    53    29 1
    56    29    30 ar
    57    54    30 1
    58    30    31 ar
    59    31    55 1
@<TRIPOS>SUBSTRUCTURE
     1 L0E         1 TEMP              0 ****  ****    0 ROOT
