@<TRIPOS>MOLECULE
L0E
   55    59     1     0     0
SMALL
bcc


@<TRIPOS>ATOM
      1 O1           0.0000     0.0000     0.0000 o          1 L0E      -0.663100
      2 C2           1.2080     0.0000     0.0000 c          1 L0E       0.586100
      3 N3           1.9510     0.0000     1.1390 ns         1 L0E      -0.020100
      4 C4           1.4910    -0.0460     2.4370 cc         1 L0E      -0.182700
      5 C5           0.2670    -0.3580     2.9090 cd         1 L0E      -0.317300
      6 N6           0.3270    -0.2540     4.2470 na         1 L0E       0.567400
      7 N8           1.5510     0.1140     4.6650 nd         1 L0E      -0.678800
      8 C9           2.2480     0.2330     3.5620 cc         1 L0E       0.247000
      9 C10          3.6200     0.6390     3.6640 cc         1 L0E       0.228800
     10 N11          4.3370     1.1170     2.6990 nd         1 L0E      -0.534100
     11 C12          5.5620     1.3960     3.1810 ca         1 L0E       0.056400
     12 C13          6.6890     1.9130     2.5690 ca         1 L0E       0.005000
     13 C14          7.8600     2.1200     3.2910 ca         1 L0E      -0.223300
     14 C15          9.0850     2.6790     2.6140 c3         1 L0E       0.098100
     15 N16         10.0530     1.5960     2.2340 nx         1 L0E      -0.009400
     16 C18          9.5110     0.7570     1.1310 c3         1 L0E      -0.049700
     17 C19         10.5290    -0.3050     0.7660 c3         1 L0E       0.191400
     18 O20         10.8660    -1.1270     1.9020 os         1 L0E      -0.353600
     19 C21         11.3860    -0.3190     2.9670 c3         1 L0E       0.191400
     20 C22         10.3720     0.7230     3.3950 c3         1 L0E      -0.049700
     21 C23          7.8780     1.7890     4.6520 ca         1 L0E      -0.107000
     22 C24          6.7530     1.2750     5.2610 ca         1 L0E      -0.041000
     23 C25          5.5940     1.0760     4.5300 ca         1 L0E      -0.263200
     24 N26          4.3500     0.6060     4.7920 na         1 L0E       0.345700
     25 N28          1.8860     0.0000    -1.1890 ns         1 L0E      -0.105100
     26 C29          3.2980     0.0160    -1.3920 ca         1 L0E      -0.070400
     27 C30          3.8780     0.9710    -2.2100 ca         1 L0E      -0.111500
     28 C31          5.2380     0.9830    -2.4010 ca         1 L0E      -0.082000
     29 C32          6.0290     0.0500    -1.7850 ca         1 L0E      -0.125000
     30 C33          5.4680    -0.9000    -0.9760 ca         1 L0E      -0.082000
     31 C34          4.1110    -0.9240    -0.7760 ca         1 L0E      -0.111500
     32 H7          -0.4460    -0.4290     4.8590 hn         1 L0E       0.142700
     33 H17         10.9020     2.0210     1.9170 hn         1 L0E       0.251800
     34 H27          4.0260     0.2860     5.6830 hn         1 L0E       0.146700
     35 H35          2.9440     0.0380     1.0210 hn         1 L0E       0.186500
     36 H36         -0.5990    -0.6380     2.3220 h4         1 L0E       0.192000
     37 H37          6.6580     2.1660     1.5160 ha         1 L0E       0.112000
     38 H38          9.5760     3.3700     3.2880 hx         1 L0E       0.070700
     39 H39          8.7820     3.2110     1.7200 hx         1 L0E       0.070700
     40 H40          8.5940     0.2810     1.4580 hx         1 L0E       0.091950
     41 H41          9.3140     1.3800     0.2670 hx         1 L0E       0.091950
     42 H42         11.4270     0.1780     0.4020 h1         1 L0E       0.043450
     43 H43         10.1170    -0.9340    -0.0140 h1         1 L0E       0.043450
     44 H44         11.6210    -0.9550     3.8120 h1         1 L0E       0.043450
     45 H45         12.2860     0.1790     2.6280 h1         1 L0E       0.043450
     46 H46         10.7870     1.3230     4.1950 hx         1 L0E       0.091950
     47 H47          9.4690     0.2300     3.7350 hx         1 L0E       0.091950
     48 H48          8.7800     1.9430     5.2310 ha         1 L0E       0.107000
     49 H49          6.7770     1.0220     6.3140 ha         1 L0E       0.118000
     50 H50          1.3230    -0.0130    -2.0160 hn         1 L0E       0.192500
     51 H51          3.2570     1.7110    -2.7000 ha         1 L0E       0.117500
     52 H52          5.6870     1.7330    -3.0410 ha         1 L0E       0.102500
     53 H53          7.1010     0.0650    -1.9390 ha         1 L0E       0.090000
     54 H54          6.0980    -1.6360    -0.4920 ha         1 L0E       0.102500
     55 H55          3.6730    -1.6790    -0.1350 ha         1 L0E       0.117500
@<TRIPOS>BOND
     1     1     2 2   
     2     2     3 1   
     3     2    25 1   
     4     3     4 1   
     5     3    35 1   
     6     4     5 2   
     7     4     8 1   
     8     5     6 1   
     9     5    36 1   
    10     6     7 1   
    11     6    32 1   
    12     7     8 2   
    13     8     9 1   
    14     9    10 2   
    15     9    24 1   
    16    10    11 1   
    17    11    12 ar  
    18    11    23 ar  
    19    12    13 ar  
    20    12    37 1   
    21    13    14 1   
    22    13    21 ar  
    23    14    15 1   
    24    14    38 1   
    25    14    39 1   
    26    15    16 1   
    27    15    20 1   
    28    15    33 1   
    29    16    17 1   
    30    16    40 1   
    31    16    41 1   
    32    17    18 1   
    33    17    42 1   
    34    17    43 1   
    35    18    19 1   
    36    19    20 1   
    37    19    44 1   
    38    19    45 1   
    39    20    46 1   
    40    20    47 1   
    41    21    22 ar  
    42    21    48 1   
    43    22    23 ar  
    44    22    49 1   
    45    23    24 1   
    46    24    34 1   
    47    25    26 1   
    48    25    50 1   
    49    26    27 ar  
    50    26    31 ar  
    51    27    28 ar  
    52    27    51 1   
    53    28    29 ar  
    54    28    52 1   
    55    29    30 ar  
    56    29    53 1   
    57    30    31 ar  
    58    30    54 1   
    59    31    55 1   
@<TRIPOS>SUBSTRUCTURE
     1 L0E         1 TEMP              0 ****  ****    0 ROOT
