@<TRIPOS>MOLECULE
molecule
   36    39     1     0     0
SMALL
bcc


@<TRIPOS>ATOM
      1 O1           0.0000     0.0000     0.0000 o          1 L0F      -0.628100
      2 C2           1.2160     0.0000     0.0000 c          1 L0F       0.676700
      3 N3           1.8900     0.0000     1.1670 ns         1 L0F      -0.432100
      4 C4           1.1890    -0.0000     2.3820 cc         1 L0F      -0.116700
      5 C5          -0.1590     0.0000     2.5280 cd         1 L0F      -0.128300
      6 N6          -0.4350     0.0000     3.8590 na         1 L0F      -0.037600
      7 N8           0.7800     0.0010     4.5560 nd         1 L0F      -0.509800
      8 C9           1.7620    -0.0060     3.6760 cc         1 L0F       0.312000
      9 C10          3.2060    -0.0130     3.9850 cc         1 L0F       0.408800
     10 N11          4.1690    -0.0100     3.0950 nd         1 L0F      -0.625100
     11 C12          5.3700    -0.0180     3.7230 ca         1 L0F       0.096400
     12 C13          6.6910    -0.0190     3.2660 ca         1 L0F      -0.075000
     13 C14          7.7270    -0.0290     4.1730 ca         1 L0F      -0.143000
     14 C15          7.4710    -0.0380     5.5350 ca         1 L0F      -0.112000
     15 C16          6.1730    -0.0380     6.0040 ca         1 L0F      -0.126000
     16 C17          5.1160    -0.0270     5.1060 ca         1 L0F      -0.087200
     17 N18          3.7420    -0.0180     5.2460 na         1 L0F      -0.247300
     18 C20          1.9550    -0.0060    -1.2810 ca         1 L0F      -0.146600
     19 C21          1.2590    -0.0120    -2.4920 ca         1 L0F      -0.084000
     20 C22          1.9550    -0.0170    -3.6830 ca         1 L0F      -0.139500
     21 C23          3.3380    -0.0170    -3.6800 ca         1 L0F      -0.104000
     22 C24          4.0340    -0.0120    -2.4830 ca         1 L0F      -0.139500
     23 C25          3.3500    -0.0010    -1.2850 ca         1 L0F      -0.084000
     24 H7          -1.3480     0.0020     4.2690 hn         1 L0F       0.340700
     25 H19          3.2360    -0.1530     6.0990 hn         1 L0F       0.316700
     26 H26          2.8910     0.0210     1.1660 hn         1 L0F       0.358500
     27 H27         -0.8870    -0.0000     1.7260 h4         1 L0F       0.226000
     28 H28          6.8990    -0.0120     2.2030 ha         1 L0F       0.139000
     29 H29          8.7510    -0.0290     3.8180 ha         1 L0F       0.134000
     30 H30          8.2960    -0.0450     6.2380 ha         1 L0F       0.134000
     31 H31          5.9810    -0.0450     7.0700 ha         1 L0F       0.129000
     32 H32          0.1760    -0.0120    -2.4960 ha         1 L0F       0.146500
     33 H33          1.4160    -0.0220    -4.6230 ha         1 L0F       0.134500
     34 H34          3.8800    -0.0240    -4.6180 ha         1 L0F       0.132000
     35 H35          5.1170    -0.0100    -2.4880 ha         1 L0F       0.134500
     36 H36          3.8960     0.0030    -0.3490 ha         1 L0F       0.146500
@<TRIPOS>BOND
     1     2     1 2
     2    18     2 1
     3     2     3 1
     4    26     3 1
     5     3     4 1
     6     8     4 1
     7     4     5 2
     8     5    27 1
     9     5     6 1
    10     7     6 1
    11     6    24 1
    12     8     7 2
    13     9     8 1
    14    10     9 2
    15     9    17 1
    16    11    10 1
    17    12    11 ar
    18    11    16 ar
    19    28    12 1
    20    13    12 ar
    21    29    13 1
    22    13    14 ar
    23    30    14 1
    24    14    15 ar
    25    15    16 ar
    26    15    31 1
    27    16    17 1
    28    17    25 1
    29    19    18 ar
    30    23    18 ar
    31    20    19 ar
    32    19    32 1
    33    33    20 1
    34    21    20 ar
    35    34    21 1
    36    21    22 ar
    37    35    22 1
    38    22    23 ar
    39    23    36 1
@<TRIPOS>SUBSTRUCTURE
     1 L0F         1 TEMP              0 ****  ****    0 ROOT
