@<TRIPOS>MOLECULE
L0G
   53    57     1     0     0
SMALL
bcc


@<TRIPOS>ATOM
      1 O1           0.0000     0.0000     0.0000 o          1 L0G      -0.665100
      2 C2           1.2150     0.0000     0.0000 c          1 L0G       0.564100
      3 N3           1.8890     0.0000     1.1680 ns         1 L0G      -0.122900
      4 C4           1.1560    -0.0010     2.4360 cx         1 L0G      -0.067300
      5 C5           1.8690    -0.5720     3.6630 cx         1 L0G      -0.072900
      6 C6           1.6520     0.9390     3.5380 cx         1 L0G      -0.072900
      7 N7           1.8890    -0.0060    -1.1670 ns         1 L0G      -0.033100
      8 C8           1.1870    -0.0120    -2.3840 cc         1 L0G      -0.226700
      9 C9          -0.1610    -0.0060    -2.5290 cd         1 L0G      -0.252300
     10 N10         -0.4370    -0.0140    -3.8590 na         1 L0G       0.568400
     11 N12          0.7770    -0.0250    -4.5580 nc         1 L0G      -0.626800
     12 C13          1.7590    -0.0180    -3.6770 cc         1 L0G       0.168300
     13 C14          3.2040    -0.0190    -3.9870 cd         1 L0G      -0.168200
     14 N15          3.7610    -0.4990    -5.1420 na         1 L0G       0.455600
     15 C17          5.1270    -0.3190    -5.0430 ca         1 L0G      -0.234200
     16 C18          6.1980    -0.6000    -5.8790 ca         1 L0G      -0.033000
     17 C19          7.4810    -0.2880    -5.4800 ca         1 L0G      -0.137300
     18 C20          8.6420    -0.5950    -6.3900 c3         1 L0G       0.055100
     19 N21          8.8960     0.5590    -7.2640 nx         1 L0G       0.027600
     20 C23         10.1010     0.3090    -8.0680 c3         1 L0G      -0.070200
     21 C24         10.3640     1.5120    -8.9770 c3         1 L0G       0.209900
     22 O25          9.2180     1.7370    -9.8040 os         1 L0G      -0.353600
     23 C26          8.0130     1.9620    -9.0660 c3         1 L0G       0.209900
     24 C27          7.7460     0.7600    -8.1570 c3         1 L0G      -0.070200
     25 C28          7.7100     0.3030    -4.2470 ca         1 L0G      -0.052000
     26 C29          6.6610     0.5900    -3.4030 ca         1 L0G      -0.010000
     27 C30          5.3540     0.2820    -3.7910 ca         1 L0G      -0.257200
     28 N31          4.1440     0.4420    -3.1990 na         1 L0G       0.495600
     29 H11         -1.3500    -0.0140    -4.2690 hn         1 L0G       0.175700
     30 H16          3.2870    -1.0210    -5.8520 hn         1 L0G       0.180700
     31 H22          9.0330     1.3800    -6.7090 hn         1 L0G       0.258800
     32 H32          3.9930     0.8530    -2.2990 hn         1 L0G       0.165700
     33 H33          2.8890    -0.0410     1.1680 hn         1 L0G       0.155500
     34 H34          0.0840    -0.1550     2.4210 h1         1 L0G       0.110700
     35 H35          1.2330    -1.0780     4.3800 hc         1 L0G       0.053450
     36 H36          2.8830    -0.9150     3.4980 hc         1 L0G       0.053450
     37 H37          0.8840     1.3550     4.1790 hc         1 L0G       0.053450
     38 H38          2.5350     1.5190     3.2960 hc         1 L0G       0.053450
     39 H39          2.8890    -0.0490    -1.1660 hn         1 L0G       0.129500
     40 H40         -0.8890     0.0040    -1.7270 h4         1 L0G       0.234000
     41 H41          6.0350    -1.1400    -6.8040 ha         1 L0G       0.134000
     42 H42          8.4080    -1.4620    -6.9950 hx         1 L0G       0.089200
     43 H43          9.5240    -0.7980    -5.7950 hx         1 L0G       0.089200
     44 H44         10.9490     0.1630    -7.4110 hx         1 L0G       0.088450
     45 H45          9.9510    -0.5750    -8.6760 hx         1 L0G       0.088450
     46 H46         10.5480     2.3900    -8.3700 h1         1 L0G       0.051200
     47 H47         11.2250     1.3100    -9.6030 h1         1 L0G       0.051200
     48 H48          8.1220     2.8540    -8.4620 h1         1 L0G       0.051200
     49 H49          7.1860     2.0840    -9.7550 h1         1 L0G       0.051200
     50 H50          7.6020    -0.1260    -8.7640 hx         1 L0G       0.088450
     51 H51          6.8590     0.9470    -7.5640 hx         1 L0G       0.088450
     52 H52          8.7230     0.5430    -3.9450 ha         1 L0G       0.135000
     53 H53          6.8480     1.0520    -2.4410 ha         1 L0G       0.141000
@<TRIPOS>BOND
     1     1     2 2   
     2     2     3 1   
     3     2     7 1   
     4     3     4 1   
     5     3    33 1   
     6     4     5 1   
     7     4     6 1   
     8     4    34 1   
     9     5     6 1   
    10     5    35 1   
    11     5    36 1   
    12     6    37 1   
    13     6    38 1   
    14     7     8 1   
    15     7    39 1   
    16     8     9 2   
    17     8    12 1   
    18     9    10 1   
    19     9    40 1   
    20    10    11 2   
    21    10    29 1   
    22    11    12 1   
    23    12    13 2   
    24    13    14 1   
    25    13    28 1   
    26    14    15 1   
    27    14    30 1   
    28    15    16 ar  
    29    15    27 ar  
    30    16    17 ar  
    31    16    41 1   
    32    17    18 1   
    33    17    25 ar  
    34    18    19 1   
    35    18    42 1   
    36    18    43 1   
    37    19    20 1   
    38    19    24 1   
    39    19    31 1   
    40    20    21 1   
    41    20    44 1   
    42    20    45 1   
    43    21    22 1   
    44    21    46 1   
    45    21    47 1   
    46    22    23 1   
    47    23    24 1   
    48    23    48 1   
    49    23    49 1   
    50    24    50 1   
    51    24    51 1   
    52    25    26 ar  
    53    25    52 1   
    54    26    27 ar  
    55    26    53 1   
    56    27    28 1   
    57    28    32 1   
@<TRIPOS>SUBSTRUCTURE
     1 L0G         1 TEMP              0 ****  ****    0 ROOT
