@<TRIPOS>MOLECULE
molecule
   36    39     1     0     0
SMALL
bcc


@<TRIPOS>ATOM
      1 O1           0.0000     0.0000     0.0000 o          1 L0H      -0.627100
      2 C2           1.2150     0.0000     0.0000 c          1 L0H       0.676700
      3 N3           1.8890     0.0000     1.1680 ns         1 L0H      -0.434100
      4 C4           1.1860    -0.0020     2.3840 cc         1 L0H      -0.115700
      5 C5          -0.1610    -0.0020     2.5280 cd         1 L0H      -0.127300
      6 N6          -0.4380    -0.0040     3.8590 na         1 L0H      -0.037600
      7 N8           0.7770    -0.0050     4.5570 nd         1 L0H      -0.510800
      8 C9           1.7590    -0.0080     3.6760 cc         1 L0H       0.312000
      9 C10          3.2030    -0.0140     3.9880 cc         1 L0H       0.407800
     10 N11          4.1670    -0.0140     3.0980 nd         1 L0H      -0.625100
     11 C12          5.3670    -0.0190     3.7260 ca         1 L0H       0.096400
     12 C13          6.6900    -0.0210     3.2710 ca         1 L0H      -0.075000
     13 C14          7.7190    -0.0270     4.1700 ca         1 L0H      -0.142000
     14 C15          7.4670    -0.0320     5.5340 ca         1 L0H      -0.113000
     15 C16          6.1710    -0.0300     6.0060 ca         1 L0H      -0.125000
     16 C17          5.1130    -0.0240     5.1090 ca         1 L0H      -0.089200
     17 N18          3.7380    -0.0150     5.2480 na         1 L0H      -0.245300
     18 C20          1.9550    -0.0050    -1.2800 ca         1 L0H      -0.146600
     19 C21          1.2600    -0.0090    -2.4900 ca         1 L0H      -0.084000
     20 C22          1.9560    -0.0140    -3.6810 ca         1 L0H      -0.140000
     21 C23          3.3400    -0.0130    -3.6780 ca         1 L0H      -0.104000
     22 C24          4.0340    -0.0080    -2.4810 ca         1 L0H      -0.140000
     23 C25          3.3510     0.0020    -1.2830 ca         1 L0H      -0.084000
     24 H3           2.8900     0.0330     1.1680 hn         1 L0H       0.358500
     25 H5          -0.8880    -0.0010     1.7260 h4         1 L0H       0.225000
     26 H6          -1.3510    -0.0030     4.2690 hn         1 L0H       0.340700
     27 H18          3.2320    -0.1470     6.1020 hn         1 L0H       0.316700
     28 H13          6.8980    -0.0170     2.2080 ha         1 L0H       0.139000
     29 H14          8.7420    -0.0290     3.8130 ha         1 L0H       0.134000
     30 H15          8.2940    -0.0370     6.2340 ha         1 L0H       0.134000
     31 H16          5.9810    -0.0340     7.0720 ha         1 L0H       0.130000
     32 H21          0.1770    -0.0110    -2.4950 ha         1 L0H       0.146500
     33 H25          3.8960     0.0060    -0.3470 ha         1 L0H       0.146500
     34 H22          1.4190    -0.0180    -4.6210 ha         1 L0H       0.134500
     35 H23          3.8810    -0.0180    -4.6160 ha         1 L0H       0.132000
     36 H24          5.1170    -0.0050    -2.4850 ha         1 L0H       0.134500
@<TRIPOS>BOND
     1     1     2 2
     2     2     3 1
     3     2    18 1
     4     3     4 1
     5     4     5 2
     6     4     8 1
     7     5     6 1
     8     6     7 1
     9     7     8 2
    10     8     9 1
    11     9    10 2
    12     9    17 1
    13    10    11 1
    14    11    12 ar
    15    11    16 ar
    16    12    13 ar
    17    13    14 ar
    18    14    15 ar
    19    15    16 ar
    20    16    17 1
    21    18    19 ar
    22    18    23 ar
    23    19    20 ar
    24    20    21 ar
    25    21    22 ar
    26    22    23 ar
    27     3    24 1
    28     5    25 1
    29     6    26 1
    30    17    27 1
    31    12    28 1
    32    13    29 1
    33    14    30 1
    34    15    31 1
    35    19    32 1
    36    23    33 1
    37    20    34 1
    38    21    35 1
    39    22    36 1
@<TRIPOS>SUBSTRUCTURE
     1 L0H         1 TEMP              0 ****  ****    0 ROOT
