@<TRIPOS>MOLECULE
L0H
   36    39     1     0     0
SMALL
bcc


@<TRIPOS>ATOM
      1 O1           0.0000     0.0000     0.0000 o          1 L0H      -0.670100
      2 C2           1.2150     0.0000     0.0000 c          1 L0H       0.581700
      3 N3           1.8890     0.0000     1.1680 ns         1 L0H       0.018900
      4 C4           1.1860    -0.0020     2.3840 cc         1 L0H      -0.261700
      5 C5          -0.1610    -0.0020     2.5280 cd         1 L0H      -0.288300
      6 N6          -0.4380    -0.0040     3.8590 na         1 L0H       0.465400
      7 N8           0.7770    -0.0050     4.5570 nd         1 L0H      -0.674800
      8 C9           1.7590    -0.0080     3.6760 cc         1 L0H       0.338000
      9 C10          3.2030    -0.0140     3.9880 cc         1 L0H       0.194800
     10 N11          4.1670    -0.0140     3.0980 nd         1 L0H      -0.549100
     11 C12          5.3670    -0.0190     3.7260 ca         1 L0H       0.070400
     12 C13          6.6900    -0.0210     3.2710 ca         1 L0H      -0.046000
     13 C14          7.7190    -0.0270     4.1700 ca         1 L0H      -0.114000
     14 C15          7.4670    -0.0320     5.5340 ca         1 L0H      -0.091000
     15 C16          6.1710    -0.0300     6.0060 ca         1 L0H      -0.082000
     16 C17          5.1130    -0.0240     5.1090 ca         1 L0H      -0.278200
     17 N18          3.7380    -0.0150     5.2480 na         1 L0H       0.296700
     18 C20          1.9550    -0.0050    -1.2800 ca         1 L0H      -0.159600
     19 C21          1.2600    -0.0090    -2.4900 ca         1 L0H      -0.058500
     20 C22          1.9560    -0.0140    -3.6810 ca         1 L0H      -0.113000
     21 C23          3.3400    -0.0130    -3.6780 ca         1 L0H      -0.078000
     22 C24          4.0340    -0.0080    -2.4810 ca         1 L0H      -0.113000
     23 C25          3.3510     0.0020    -1.2830 ca         1 L0H      -0.058500
     24 H3           2.8900     0.0330     1.1680 hn         1 L0H       0.204500
     25 H5          -0.8880    -0.0010     1.7260 h4         1 L0H       0.206000
     26 H6          -1.3510    -0.0030     4.2690 hn         1 L0H       0.151700
     27 H18          3.2320    -0.1470     6.1020 hn         1 L0H       0.139700
     28 H13          6.8980    -0.0170     2.2080 ha         1 L0H       0.107000
     29 H14          8.7420    -0.0290     3.8130 ha         1 L0H       0.104000
     30 H15          8.2940    -0.0370     6.2340 ha         1 L0H       0.104000
     31 H16          5.9810    -0.0340     7.0720 ha         1 L0H       0.101000
     32 H21          0.1770    -0.0110    -2.4950 ha         1 L0H       0.119000
     33 H25          3.8960     0.0060    -0.3470 ha         1 L0H       0.119000
     34 H22          1.4190    -0.0180    -4.6210 ha         1 L0H       0.105500
     35 H23          3.8810    -0.0180    -4.6160 ha         1 L0H       0.102000
     36 H24          5.1170    -0.0050    -2.4850 ha         1 L0H       0.105500
@<TRIPOS>BOND
     1     1     2 2   
     2     2     3 1   
     3     2    18 1   
     4     3     4 1   
     5     3    24 1   
     6     4     5 2   
     7     4     8 1   
     8     5     6 1   
     9     5    25 1   
    10     6     7 1   
    11     6    26 1   
    12     7     8 2   
    13     8     9 1   
    14     9    10 2   
    15     9    17 1   
    16    10    11 1   
    17    11    12 ar  
    18    11    16 ar  
    19    12    13 ar  
    20    12    28 1   
    21    13    14 ar  
    22    13    29 1   
    23    14    15 ar  
    24    14    30 1   
    25    15    16 ar  
    26    15    31 1   
    27    16    17 1   
    28    17    27 1   
    29    18    19 ar  
    30    18    23 ar  
    31    19    20 ar  
    32    19    32 1   
    33    20    21 ar  
    34    20    34 1   
    35    21    22 ar  
    36    21    35 1   
    37    22    23 ar  
    38    22    36 1   
    39    23    33 1   
@<TRIPOS>SUBSTRUCTURE
     1 L0H         1 TEMP              0 ****  ****    0 ROOT
