@<TRIPOS>MOLECULE
molecule
   52    56     1     0     0
SMALL
bcc


@<TRIPOS>ATOM
      1 O1           0.0000     0.0000     0.0000 o          1 L0I      -0.663100
      2 C2           1.2170     0.0000     0.0000 c          1 L0I       0.790100
      3 N3           1.8900     0.0000     1.1670 ns         1 L0I      -0.558900
      4 C4           1.1580     0.0020     2.4360 cx         1 L0I       0.069700
      5 C5           1.8700    -0.5710     3.6630 cx         1 L0I      -0.153900
      6 C6           1.6560     0.9390     3.5380 cx         1 L0I      -0.153900
      7 N7           1.8900    -0.0080    -1.1670 ns         1 L0I      -0.462100
      8 C8           1.1870    -0.0140    -2.3850 cc         1 L0I      -0.086700
      9 C9          -0.1600    -0.0140    -2.5290 cd         1 L0I      -0.118300
     10 N10         -0.4370    -0.0210    -3.8590 na         1 L0I      -0.016600
     11 N12          0.7770    -0.0260    -4.5580 nd         1 L0I      -0.506800
     12 C13          1.7590    -0.0150    -3.6770 cc         1 L0I       0.274000
     13 C14          3.2040    -0.0100    -3.9880 cc         1 L0I       0.471800
     14 N15          4.1670    -0.0090    -3.0980 nd         1 L0I      -0.623100
     15 C16          5.3670    -0.0040    -3.7260 ca         1 L0I       0.140400
     16 C17          6.6900    -0.0000    -3.2690 ca         1 L0I      -0.058000
     17 C18          7.7250     0.0040    -4.1770 ca         1 L0I      -0.140000
     18 C19          7.4680     0.0050    -5.5400 ca         1 L0I      -0.185300
     19 C20          8.6150     0.0110    -6.5170 c3         1 L0I       0.169100
     20 N21          8.9930    -1.3730    -6.8370 nx         1 L0I      -0.653400
     21 C23         10.0290    -1.3700    -7.8780 c3         1 L0I       0.059800
     22 C24         10.4200    -2.8130    -8.2100 c3         1 L0I       0.115900
     23 O25         10.8730    -3.4640    -7.0200 os         1 L0I      -0.381600
     24 C26          9.9060    -3.4710    -5.9660 c3         1 L0I       0.115900
     25 C27          9.5140    -2.0310    -5.6300 c3         1 L0I       0.059800
     26 C28          6.1700     0.0010    -6.0070 ca         1 L0I      -0.083000
     27 C29          5.1130    -0.0030    -5.1090 ca         1 L0I      -0.102200
     28 N30          3.7380    -0.0120    -5.2480 na         1 L0I      -0.242300
     29 H11         -1.3500    -0.0250    -4.2690 hn         1 L0I       0.350700
     30 H22          8.1920    -1.8730    -7.1680 hn         1 L0I       0.447800
     31 H31          3.2330     0.1190    -6.1020 hn         1 L0I       0.329700
     32 H32          2.8910    -0.0250     1.1670 hn         1 L0I       0.313500
     33 H33          0.0850    -0.1520     2.4210 h1         1 L0I       0.128700
     34 H34          1.2330    -1.0760     4.3790 hc         1 L0I       0.080200
     35 H35          2.8840    -0.9150     3.4970 hc         1 L0I       0.080200
     36 H36          2.5390     1.5170     3.2960 hc         1 L0I       0.080200
     37 H37          0.8880     1.3560     4.1790 hc         1 L0I       0.080200
     38 H38          2.8910    -0.0100    -1.1670 hn         1 L0I       0.343500
     39 H39         -0.8880    -0.0090    -1.7260 h4         1 L0I       0.239000
     40 H40          6.8980    -0.0010    -2.2060 ha         1 L0I       0.164000
     41 H41          8.7490     0.0150    -3.8230 ha         1 L0I       0.136000
     42 H42          8.3150     0.5220    -7.4240 hx         1 L0I       0.103700
     43 H43          9.4620     0.5240    -6.0770 hx         1 L0I       0.103700
     44 H44          9.6430    -0.8880    -8.7680 hx         1 L0I       0.113450
     45 H45         10.8990    -0.8350    -7.5190 hx         1 L0I       0.113450
     46 H46         11.2160    -2.8110    -8.9450 h1         1 L0I       0.089450
     47 H47          9.5580    -3.3390    -8.6040 h1         1 L0I       0.089450
     48 H48         10.3330    -3.9430    -5.0890 h1         1 L0I       0.089450
     49 H49          9.0280    -4.0190    -6.2860 h1         1 L0I       0.089450
     50 H50         10.3850    -1.4940    -5.2750 hx         1 L0I       0.113450
     51 H51          8.7490    -2.0350    -4.8640 hx         1 L0I       0.113450
     52 H52          5.9760     0.0020    -7.0730 ha         1 L0I       0.131000
@<TRIPOS>BOND
     1     2     1 2
     2     3     2 1
     3     2     7 1
     4     4     3 1
     5     3    32 1
     6     5     4 1
     7     6     4 1
     8    33     4 1
     9    34     5 1
    10     5    35 1
    11     5     6 1
    12    37     6 1
    13     6    36 1
    14    38     7 1
    15     7     8 1
    16    12     8 1
    17     8     9 2
    18     9    10 1
    19     9    39 1
    20    11    10 1
    21    10    29 1
    22    12    11 2
    23    13    12 1
    24    14    13 2
    25    13    28 1
    26    15    14 1
    27    16    15 ar
    28    15    27 ar
    29    40    16 1
    30    17    16 ar
    31    41    17 1
    32    17    18 ar
    33    19    18 1
    34    18    26 ar
    35    20    19 1
    36    43    19 1
    37    19    42 1
    38    30    20 1
    39    25    20 1
    40    20    21 1
    41    22    21 1
    42    21    44 1
    43    21    45 1
    44    46    22 1
    45    23    22 1
    46    22    47 1
    47    24    23 1
    48    48    24 1
    49    49    24 1
    50    24    25 1
    51    51    25 1
    52    25    50 1
    53    26    27 ar
    54    26    52 1
    55    27    28 1
    56    28    31 1
@<TRIPOS>SUBSTRUCTURE
     1 L0I         1 TEMP              0 ****  ****    0 ROOT
