@<TRIPOS>MOLECULE
molecule
   54    57     1     0     0
SMALL
bcc


@<TRIPOS>ATOM
      1 C01          0.0000     0.0000     0.0000 c3         1 L0R      -0.100400
      2 C02          1.5320     0.0000     0.0000 c3         1 L0R       0.104000
      3 N03          2.0040     0.0000     1.3910 n          1 L0R      -0.488800
      4 C04          1.5080    -1.0380     2.3060 c3         1 L0R       0.046700
      5 C05         -0.0240    -1.0270     2.2790 c3         1 L0R      -0.086400
      6 C06         -0.5060    -1.1790     0.8350 c3         1 L0R      -0.080400
      7 C07          1.9920    -0.7530     3.7040 c          1 L0R       0.688100
      8 O08          1.5890     0.2260     4.2960 o          1 L0R      -0.584100
      9 N09          2.8710    -1.5850     4.2960 n          1 L0R      -0.488800
     10 C10          3.5930    -6.3290     4.8310 ca         1 L0R      -0.130000
     11 C11          2.8770     0.9320     1.8210 c          1 L0R       0.656100
     12 O12          3.2020     0.9660     2.9890 o          1 L0R      -0.540100
     13 C13          3.4480     1.9330     0.8500 c3         1 L0R       0.070400
     14 O14          4.3420     2.8100     1.5390 os         1 L0R      -0.294900
     15 C15          4.9460     3.7790     0.8030 ca         1 L0R       0.142100
     16 C16          5.8260     4.6650     1.4090 ca         1 L0R      -0.189500
     17 C17          6.1780     5.7510    -0.6960 ca         1 L0R      -0.167000
     18 C18          5.3080     4.8660    -1.3030 ca         1 L0R      -0.091000
     19 C19          6.4400     5.6490     0.6580 ca         1 L0R      -0.091000
     20 C20          4.6910     3.8790    -0.5570 ca         1 L0R      -0.189500
     21 C21          3.5740    -5.2170     4.0130 ca         1 L0R      -0.127000
     22 C22          3.1820    -4.9280     6.7290 ca         1 L0R      -0.128000
     23 C23          3.3980    -6.1820     6.1980 ca         1 L0R      -0.124000
     24 C24          3.1560    -3.8070     5.9070 ca         1 L0R      -0.060300
     25 C25          3.3610    -3.9540     4.5480 ca         1 L0R      -0.100300
     26 C26          3.3770    -2.7760     3.6060 c3         1 L0R       0.147300
     27 C27          3.3670    -1.3300     5.6580 c3         1 L0R       0.118000
     28 C28          2.8900    -2.4730     6.5540 c3         1 L0R      -0.061100
     29 H1          -0.3600    -0.0980    -1.0170 hc         1 L0R       0.053700
     30 H2          -0.3600     0.9270     0.4300 hc         1 L0R       0.053700
     31 H3           1.8940     0.8870    -0.5060 h1         1 L0R       0.047200
     32 H4           1.8940    -0.8870    -0.5060 h1         1 L0R       0.047200
     33 H5           1.8680    -2.0070     1.9820 h1         1 L0R       0.055700
     34 H6          -0.4000    -1.8510     2.8730 hc         1 L0R       0.067200
     35 H7          -0.3840    -0.0890     2.6830 hc         1 L0R       0.067200
     36 H8          -1.5890    -1.1930     0.8170 hc         1 L0R       0.045200
     37 H9          -0.1200    -2.1030     0.4220 hc         1 L0R       0.045200
     38 H10          3.7640    -7.3120     4.4080 ha         1 L0R       0.130000
     39 H11          2.6440     2.5100     0.4100 h1         1 L0R       0.052700
     40 H12          3.9870     1.4110     0.0680 h1         1 L0R       0.052700
     41 H13          6.0310     4.5850     2.4700 ha         1 L0R       0.138000
     42 H14          6.6600     6.5230    -1.2830 ha         1 L0R       0.130000
     43 H15          5.1060     4.9470    -2.3650 ha         1 L0R       0.131500
     44 H16          7.1250     6.3430     1.1310 ha         1 L0R       0.131500
     45 H17          4.0080     3.1850    -1.0330 ha         1 L0R       0.138000
     46 H18          3.7260    -5.3310     2.9460 ha         1 L0R       0.126000
     47 H19          3.0300    -4.8150     7.7960 ha         1 L0R       0.131000
     48 H20          3.4130    -7.0510     6.8450 ha         1 L0R       0.130000
     49 H21          4.3930    -2.5950     3.2760 h1         1 L0R       0.055700
     50 H22          2.7470    -2.9910     2.7510 h1         1 L0R       0.055700
     51 H23          2.9480    -0.3990     6.0200 h1         1 L0R       0.071700
     52 H24          4.4500    -1.3200     5.6450 h1         1 L0R       0.071700
     53 H25          3.4150    -2.4260     7.5000 hc         1 L0R       0.059700
     54 H26          1.8250    -2.3680     6.7260 hc         1 L0R       0.059700
@<TRIPOS>BOND
     1     6     1 1
     2     6     5 1
     3     1     2 1
     4     5     4 1
     5     2     3 1
     6     8     7 2
     7     4     3 1
     8     4     7 1
     9     3    11 1
    10     7     9 1
    11     9    26 1
    12     9    27 1
    13    11    13 1
    14    11    12 2
    15    13    14 1
    16    26    25 1
    17    27    28 1
    18    20    18 ar
    19    20    15 ar
    20    18    17 ar
    21    14    15 1
    22    25    21 ar
    23    25    24 ar
    24    15    16 ar
    25    28    24 1
    26    21    10 ar
    27    24    22 ar
    28    17    19 ar
    29    16    19 ar
    30    10    23 ar
    31    22    23 ar
    32     1    29 1
    33     1    30 1
    34     2    31 1
    35     2    32 1
    36     4    33 1
    37     5    34 1
    38     5    35 1
    39     6    36 1
    40     6    37 1
    41    10    38 1
    42    13    39 1
    43    13    40 1
    44    16    41 1
    45    17    42 1
    46    18    43 1
    47    19    44 1
    48    20    45 1
    49    21    46 1
    50    22    47 1
    51    23    48 1
    52    26    49 1
    53    26    50 1
    54    27    51 1
    55    27    52 1
    56    28    53 1
    57    28    54 1
@<TRIPOS>SUBSTRUCTURE
     1 L0R         1 TEMP              0 ****  ****    0 ROOT
