@<TRIPOS>MOLECULE
L0Y
   64    67     1     0     0
SMALL
bcc


@<TRIPOS>ATOM
      1 C1           0.0000     0.0000     0.0000 ca         1 L0Y      -0.127000
      2 C2           1.3840     0.0000     0.0000 ca         1 L0Y      -0.106000
      3 C3          -0.6930     0.0010     1.1940 ca         1 L0Y      -0.098000
      4 C4           2.0820     0.0000     1.1940 ca         1 L0Y      -0.121000
      5 C5           3.6650    -3.5910     6.2610 ca         1 L0Y      -0.127000
      6 C6           3.5380    -4.8590     6.8010 ca         1 L0Y      -0.148000
      7 C7           0.0050     0.0020     2.4020 ca         1 L0Y      -0.101600
      8 C8           1.3390    -3.1720     6.6870 ca         1 L0Y      -0.033600
      9 C9           1.4010     0.0010     2.3950 ca         1 L0Y      -0.014300
     10 C10          2.5790    -2.7470     6.2000 ca         1 L0Y      -0.075300
     11 C11          2.3140    -5.2960     7.2860 ca         1 L0Y       0.039100
     12 C12          1.2090    -4.4550     7.2340 ca         1 L0Y       0.075100
     13 C13         -0.7300     0.0020     3.6850 c          1 L0Y       0.568700
     14 C15         -6.9690     1.1870     5.0380 c3         1 L0Y      -0.024400
     15 C16         -6.5770    -0.1200     5.7310 c3         1 L0Y      -0.024900
     16 C17         -6.2080     1.3110     3.7160 c3         1 L0Y      -0.024900
     17 C18         -5.0720    -0.1210     6.0050 c3         1 L0Y      -0.024400
     18 C19         -4.7040     1.3110     3.9920 c3         1 L0Y      -0.024400
     19 C20          1.0640    -6.8180     8.6170 c3         1 L0Y       0.165400
     20 C21         -0.1750    -6.2680     7.8980 c3         1 L0Y       0.163400
     21 C22         -4.3120     0.0040     4.6830 c3         1 L0Y      -0.062700
     22 C23          2.9880    -2.2530     3.3740 c3         1 L0Y       0.149100
     23 C24          2.1640     0.0010     3.6950 c3         1 L0Y       0.175100
     24 C25          2.7260    -1.3680     5.6120 c3         1 L0Y       0.203100
     25 C26         -2.8070     0.0040     4.9600 c3         1 L0Y       0.033000
     26 N27         -2.0780     0.0030     3.6880 ns         1 L0Y      -0.210900
     27 N28          2.2030    -1.3640     4.2390 n3         1 L0Y      -0.472600
     28 O29         -0.0210    -1.3510     7.5900 o          1 L0Y      -0.880800
     29 O30         -0.1200     0.0030     4.7350 o          1 L0Y      -0.542100
     30 O31         -0.6150    -2.3620     5.7050 o          1 L0Y      -0.880800
     31 O32          2.2110    -6.5500     7.8030 os         1 L0Y      -0.315900
     32 O33          0.0030    -4.8610     7.7100 os         1 L0Y      -0.259900
     33 H1          -0.5400    -0.0000    -0.9390 ha         1 L0Y       0.091000
     34 H2           1.9230    -0.0010    -0.9400 ha         1 L0Y       0.089000
     35 H3          -1.7760     0.0010     1.1930 ha         1 L0Y       0.100000
     36 H4           3.1650    -0.0000     1.1870 ha         1 L0Y       0.102000
     37 H5           4.6250    -3.2600     5.8830 ha         1 L0Y       0.090000
     38 H6           4.3990    -5.5150     6.8440 ha         1 L0Y       0.094000
     39 H241         3.1740     0.3490     3.5210 h1         1 L0Y       0.028200
     40 H242         1.6720     0.6570     4.4030 h1         1 L0Y       0.028200
     41 H251         3.7720    -1.0890     5.6010 h1         1 L0Y       0.023200
     42 H252         2.1700    -0.6580     6.2130 h1         1 L0Y       0.023200
     43 H27         -2.5800    -0.0520     2.8240 hn         1 L0Y       0.158500
     44 H151        -6.7170     2.0230     5.6780 hc         1 L0Y       0.005700
     45 H152        -8.0340     1.1850     4.8410 hc         1 L0Y       0.005700
     46 H161        -6.8260    -0.9560     5.0880 hc         1 L0Y       0.006200
     47 H162        -7.1140    -0.2060     6.6680 hc         1 L0Y       0.006200
     48 H171        -6.4570     0.4720     3.0780 hc         1 L0Y       0.006200
     49 H172        -6.4850     2.2380     3.2280 hc         1 L0Y       0.006200
     50 H181        -4.7960    -1.0470     6.4930 hc         1 L0Y       0.021200
     51 H182        -4.8230     0.7180     6.6440 hc         1 L0Y       0.021200
     52 H191        -4.4560     2.1470     4.6360 hc         1 L0Y       0.021200
     53 H192        -4.1660     1.3980     3.0560 hc         1 L0Y       0.021200
     54 H22         -4.5670    -0.8310     4.0420 hc         1 L0Y       0.026700
     55 H201         1.1760    -6.3270     9.5760 h1         1 L0Y       0.010700
     56 H202         0.9590    -7.8870     8.7580 h1         1 L0Y       0.010700
     57 H211        -0.2810    -6.7530     6.9350 h1         1 L0Y       0.012700
     58 H212        -1.0560    -6.4460     8.5020 h1         1 L0Y       0.012700
     59 H261        -2.5430     0.8890     5.5260 h1         1 L0Y       0.061700
     60 H262        -2.5440    -0.8810     5.5280 h1         1 L0Y       0.061700
     61 H231         2.5510    -2.2710     2.3820 h1         1 L0Y      -0.002300
     62 H232         2.9850    -3.2540     3.7870 h1         1 L0Y      -0.002300
     63 H233         4.0070    -1.8910     3.3130 h1         1 L0Y      -0.002300
     64 C14          0.1720    -2.2730     6.6250 c          1 L0Y       0.993200
@<TRIPOS>BOND
     1     1     2 ar  
     2     1     3 ar  
     3     1    33 1   
     4     2     4 ar  
     5     2    34 1   
     6     3     7 ar  
     7     3    35 1   
     8     4     9 ar  
     9     4    36 1   
    10     5     6 ar  
    11     5    10 ar  
    12     5    37 1   
    13     6    11 ar  
    14     6    38 1   
    15     7     9 ar  
    16     7    13 1   
    17     8    10 ar  
    18     8    12 ar  
    19     8    64 1   
    20     9    23 1   
    21    10    24 1   
    22    11    12 ar  
    23    11    31 1   
    24    12    32 1   
    25    13    26 1   
    26    13    29 2   
    27    14    15 1   
    28    14    16 1   
    29    14    44 1   
    30    14    45 1   
    31    15    17 1   
    32    15    46 1   
    33    15    47 1   
    34    16    18 1   
    35    16    48 1   
    36    16    49 1   
    37    17    21 1   
    38    17    50 1   
    39    17    51 1   
    40    18    21 1   
    41    18    52 1   
    42    18    53 1   
    43    19    20 1   
    44    19    31 1   
    45    19    55 1   
    46    19    56 1   
    47    20    32 1   
    48    20    57 1   
    49    20    58 1   
    50    21    25 1   
    51    21    54 1   
    52    22    27 1   
    53    22    61 1   
    54    22    62 1   
    55    22    63 1   
    56    23    27 1   
    57    23    39 1   
    58    23    40 1   
    59    24    27 1   
    60    24    41 1   
    61    24    42 1   
    62    25    26 1   
    63    25    59 1   
    64    25    60 1   
    65    26    43 1   
    66    28    64 1   
    67    30    64 1   
@<TRIPOS>SUBSTRUCTURE
     1 L0Y         1 TEMP              0 ****  ****    0 ROOT
