@<TRIPOS>MOLECULE
molecule
   64    67     1     0     0
SMALL
bcc


@<TRIPOS>ATOM
      1 C1           0.0000     0.0000     0.0000 ca         1 L0Y      -0.151000
      2 C2           1.3840     0.0000     0.0000 ca         1 L0Y      -0.130000
      3 C3          -0.6930     0.0010     1.1940 ca         1 L0Y      -0.116000
      4 C4           2.0820     0.0000     1.1940 ca         1 L0Y      -0.143000
      5 C5           3.6650    -3.5910     6.2610 ca         1 L0Y      -0.144000
      6 C6           3.5380    -4.8590     6.8010 ca         1 L0Y      -0.164000
      7 C7           0.0050     0.0020     2.4020 ca         1 L0Y      -0.098600
      8 C8           1.3390    -3.1720     6.6870 ca         1 L0Y      -0.032600
      9 C9           1.4010     0.0010     2.3950 ca         1 L0Y      -0.017300
     10 C10          2.5790    -2.7470     6.2000 ca         1 L0Y      -0.074300
     11 C11          2.3140    -5.2960     7.2860 ca         1 L0Y       0.040100
     12 C12          1.2090    -4.4550     7.2340 ca         1 L0Y       0.065100
     13 C13         -0.7300     0.0020     3.6850 c          1 L0Y       0.656700
     14 C15         -6.9690     1.1870     5.0380 c3         1 L0Y      -0.079400
     15 C16         -6.5770    -0.1200     5.7310 c3         1 L0Y      -0.080900
     16 C17         -6.2080     1.3110     3.7160 c3         1 L0Y      -0.080900
     17 C18         -5.0720    -0.1210     6.0050 c3         1 L0Y      -0.074400
     18 C19         -4.7040     1.3110     3.9920 c3         1 L0Y      -0.074400
     19 C20          1.0640    -6.8180     8.6170 c3         1 L0Y       0.098400
     20 C21         -0.1750    -6.2680     7.8980 c3         1 L0Y       0.101400
     21 C22         -4.3120     0.0040     4.6830 c3         1 L0Y      -0.088700
     22 C23          2.9880    -2.2530     3.3740 c3         1 L0Y       0.143100
     23 C24          2.1640     0.0010     3.6950 c3         1 L0Y       0.202100
     24 C25          2.7260    -1.3680     5.6120 c3         1 L0Y       0.221100
     25 C26         -2.8070     0.0040     4.9600 c3         1 L0Y       0.115000
     26 N27         -2.0780     0.0030     3.6880 ns         1 L0Y      -0.588900
     27 N28          2.2030    -1.3640     4.2390 n3         1 L0Y      -0.673600
     28 O29         -0.0210    -1.3510     7.5900 o          1 L0Y      -0.828300
     29 O30         -0.1200     0.0030     4.7350 o          1 L0Y      -0.512100
     30 O31         -0.6150    -2.3620     5.7050 o          1 L0Y      -0.828300
     31 O32          2.2110    -6.5500     7.8030 os         1 L0Y      -0.341900
     32 O33          0.0030    -4.8610     7.7100 os         1 L0Y      -0.284900
     33 H1          -0.5400    -0.0000    -0.9390 ha         1 L0Y       0.115000
     34 H2           1.9230    -0.0010    -0.9400 ha         1 L0Y       0.114000
     35 H3          -1.7760     0.0010     1.1930 ha         1 L0Y       0.122000
     36 H4           3.1650    -0.0000     1.1870 ha         1 L0Y       0.125000
     37 H5           4.6250    -3.2600     5.8830 ha         1 L0Y       0.110000
     38 H6           4.3990    -5.5150     6.8440 ha         1 L0Y       0.117000
     39 H241         3.1740     0.3490     3.5210 h1         1 L0Y       0.047700
     40 H242         1.6720     0.6570     4.4030 h1         1 L0Y       0.047700
     41 H251         3.7720    -1.0890     5.6010 h1         1 L0Y       0.047700
     42 H252         2.1700    -0.6580     6.2130 h1         1 L0Y       0.047700
     43 H27         -2.5800    -0.0520     2.8240 hn         1 L0Y       0.289500
     44 H151        -6.7170     2.0230     5.6780 hc         1 L0Y       0.032200
     45 H152        -8.0340     1.1850     4.8410 hc         1 L0Y       0.032200
     46 H161        -6.8260    -0.9560     5.0880 hc         1 L0Y       0.032700
     47 H162        -7.1140    -0.2060     6.6680 hc         1 L0Y       0.032700
     48 H171        -6.4570     0.4720     3.0780 hc         1 L0Y       0.032700
     49 H172        -6.4850     2.2380     3.2280 hc         1 L0Y       0.032700
     50 H181        -4.7960    -1.0470     6.4930 hc         1 L0Y       0.046950
     51 H182        -4.8230     0.7180     6.6440 hc         1 L0Y       0.046950
     52 H191        -4.4560     2.1470     4.6360 hc         1 L0Y       0.046950
     53 H192        -4.1660     1.3980     3.0560 hc         1 L0Y       0.046950
     54 H22         -4.5670    -0.8310     4.0420 hc         1 L0Y       0.048700
     55 H201         1.1760    -6.3270     9.5760 h1         1 L0Y       0.050700
     56 H202         0.9590    -7.8870     8.7580 h1         1 L0Y       0.050700
     57 H211        -0.2810    -6.7530     6.9350 h1         1 L0Y       0.053700
     58 H212        -1.0560    -6.4460     8.5020 h1         1 L0Y       0.053700
     59 H261        -2.5430     0.8890     5.5260 h1         1 L0Y       0.084200
     60 H262        -2.5440    -0.8810     5.5280 h1         1 L0Y       0.084200
     61 H231         2.5510    -2.2710     2.3820 h1         1 L0Y       0.023367
     62 H232         2.9850    -3.2540     3.7870 h1         1 L0Y       0.023367
     63 H233         4.0070    -1.8910     3.3130 h1         1 L0Y       0.023367
     64 C14          0.1720    -2.2730     6.6250 c          1 L0Y       0.903200
@<TRIPOS>BOND
     1     1     2 ar
     2     1     3 ar
     3     2     4 ar
     4     3     7 ar
     5     4     9 ar
     6     5     6 ar
     7     5    10 ar
     8     6    11 ar
     9     7     9 ar
    10     7    13 1
    11     8    10 ar
    12     8    12 ar
    13     8    64 1
    14     9    23 1
    15    10    24 1
    16    11    12 ar
    17    11    31 1
    18    12    32 1
    19    13    26 1
    20    13    29 2
    21    64    28 1
    22    64    30 1
    23    14    15 1
    24    14    16 1
    25    15    17 1
    26    16    18 1
    27    17    21 1
    28    18    21 1
    29    19    20 1
    30    19    31 1
    31    20    32 1
    32    21    25 1
    33    22    27 1
    34    23    27 1
    35    24    27 1
    36    25    26 1
    37     1    33 1
    38     2    34 1
    39     3    35 1
    40     4    36 1
    41     5    37 1
    42     6    38 1
    43    23    39 1
    44    23    40 1
    45    24    41 1
    46    24    42 1
    47    26    43 1
    48    14    44 1
    49    14    45 1
    50    15    46 1
    51    15    47 1
    52    16    48 1
    53    16    49 1
    54    17    50 1
    55    17    51 1
    56    18    52 1
    57    18    53 1
    58    21    54 1
    59    19    55 1
    60    19    56 1
    61    20    57 1
    62    20    58 1
    63    25    59 1
    64    25    60 1
    65    22    61 1
    66    22    62 1
    67    22    63 1
@<TRIPOS>SUBSTRUCTURE
     1 L0Y         1 TEMP              0 ****  ****    0 ROOT
