@<TRIPOS>MOLECULE
L10
   47    49     1     0     0
SMALL
bcc


@<TRIPOS>ATOM
      1 CL16        0.0660   -0.9240   -1.0320 cl        1 L10     -0.100400
      2 C15         1.6960   -0.6090   -0.6650 ca        1 L10     -0.015600
      3 C14         2.0260    0.1420    0.4640 ca        1 L10     -0.097500
      4 C13         3.3580    0.4030    0.7720 ca        1 L10     -0.166500
      5 C17         2.7050   -1.1030   -1.4960 ca        1 L10     -0.097500
      6 C18         4.0370   -0.8460   -1.2000 ca        1 L10     -0.166500
      7 C12         4.3920   -0.0850   -0.0560 ca        1 L10      0.083600
      8 N11         5.7550    0.1140    0.2010 n         1 L10     -0.444100
      9 C9          6.3050    1.0000    1.1330 c         1 L10      0.821500
     10 O10         5.5970    1.6380    1.9480 o         1 L10     -0.637100
     11 N8          7.7310    1.1070    1.0530 ne        1 L10     -0.727100
     12 C7          8.4080    1.6760    2.0120 cd        1 L10      0.712500
     13 C6          8.0000    2.2430    3.3280 cd        1 L10     -0.323600
     14 N19         9.8530    1.9190    1.9080 na        1 L10     -0.357800
     15 N20        10.3030    2.3390    3.1770 na        1 L10     -0.441800
     16 C5          9.1360    2.6720    3.9600 cc        1 L10      0.078800
     17 C2          9.2710    3.3440    5.2920 c3        1 L10     -0.001800
     18 C4          7.8850    3.6320    5.8580 c3        1 L10     -0.091433
     19 C3         10.0290    4.6580    5.1370 c3        1 L10     -0.091433
     20 C1         10.0250    2.4300    6.2520 c3        1 L10     -0.091433
     21 C21        10.6330    0.8910    1.2610 ca        1 L10      0.099600
     22 C26        10.5960    0.8430   -0.1480 ca        1 L10     -0.111500
     23 C25        11.3680   -0.0950   -0.8290 ca        1 L10     -0.130000
     24 C24        12.1810   -0.9870   -0.1310 ca        1 L10     -0.127000
     25 C23        12.2170   -0.9440    1.2610 ca        1 L10     -0.130000
     26 C22        11.4470   -0.0190    1.9620 ca        1 L10     -0.111500
     27 H14         1.2340    0.5340    1.1220 ha        1 L10      0.146500
     28 H13         3.5880    1.0000    1.6710 ha        1 L10      0.157000
     29 H17         2.4500   -1.6960   -2.3880 ha        1 L10      0.146500
     30 H18         4.8140   -1.2450   -1.8690 ha        1 L10      0.157000
     31 H11         6.3810   -0.3280   -0.4390 hn        1 L10      0.331500
     32 H6          6.9630    2.2690    3.6610 ha        1 L10      0.205000
     33 H20        10.9120    3.1360    3.0420 hn        1 L10      0.409800
     34 H4C1        7.9800    4.1440    6.8460 hc        1 L10      0.045256
     35 H4C2        7.3100    4.2920    5.1650 hc        1 L10      0.045256
     36 H4C3        7.3170    2.6820    6.0020 hc        1 L10      0.045256
     37 H3C1       10.0060    5.2200    6.1020 hc        1 L10      0.045256
     38 H3C2       11.0970    4.4740    4.8670 hc        1 L10      0.045256
     39 H3C3        9.5590    5.2900    4.3460 hc        1 L10      0.045256
     40 H1C1        9.4910    1.4560    6.3600 hc        1 L10      0.045256
     41 H1C2       11.0590    2.2330    5.8810 hc        1 L10      0.045256
     42 H1C3       10.0910    2.9160    7.2550 hc        1 L10      0.045256
     43 H26         9.9520    1.5360   -0.7140 ha        1 L10      0.150000
     44 H25        11.3330   -0.1270   -1.9280 ha        1 L10      0.135500
     45 H24        12.7900   -1.7220   -0.6770 ha        1 L10      0.134000
     46 H23        12.8530   -1.6490    1.8170 ha        1 L10      0.135500
     47 H22        11.4870   -0.0120    3.0620 ha        1 L10      0.150000
@<TRIPOS>BOND
     1    1    2 1   
     2    2    3 ar  
     3    2    5 ar  
     4    3    4 ar  
     5    3   27 1   
     6    4    7 ar  
     7    4   28 1   
     8    5    6 ar  
     9    5   29 1   
    10    6    7 ar  
    11    6   30 1   
    12    7    8 1   
    13    8    9 1   
    14    8   31 1   
    15    9   10 2   
    16    9   11 1   
    17   11   12 2   
    18   12   13 1   
    19   12   14 1   
    20   13   16 2   
    21   13   32 1   
    22   14   15 1   
    23   14   21 1   
    24   15   16 1   
    25   15   33 1   
    26   16   17 1   
    27   17   18 1   
    28   17   19 1   
    29   17   20 1   
    30   18   34 1   
    31   18   35 1   
    32   18   36 1   
    33   19   37 1   
    34   19   38 1   
    35   19   39 1   
    36   20   40 1   
    37   20   41 1   
    38   20   42 1   
    39   21   22 ar  
    40   21   26 ar  
    41   22   23 ar  
    42   22   43 1   
    43   23   24 ar  
    44   23   44 1   
    45   24   25 ar  
    46   24   45 1   
    47   25   26 ar  
    48   25   46 1   
    49   26   47 1   
@<TRIPOS>SUBSTRUCTURE
     1 L10         1 TEMP              0 ****  ****    0 ROOT
