@<TRIPOS>MOLECULE
L11
   56    59     1     0     0
SMALL
bcc


@<TRIPOS>ATOM
      1 Cl15         0.0000     0.0000     0.0000 cl         1 L11      -0.024400
      2 C14          1.7350     0.0000     0.0000 ca         1 L11      -0.044600
      3 C13          2.4260     0.0000     1.1990 ca         1 L11      -0.074000
      4 C12          3.8070     0.0000     1.2020 ca         1 L11      -0.091000
      5 C16          2.4260     0.0000    -1.1990 ca         1 L11      -0.087300
      6 C17          1.6710     0.0000    -2.5030 c3         1 L11       0.231700
      7 O18          2.5980     0.0000    -3.5900 os         1 L11      -0.277900
      8 C19          1.8630     0.0010    -4.7330 ca         1 L11       0.015800
      9 C24          0.4770    -0.0060    -4.6790 ca         1 L11       0.289200
     10 N23         -0.2400    -0.0000    -5.7850 nb         1 L11      -0.539000
     11 C22          0.3220     0.0000    -6.9770 ca         1 L11       0.361200
     12 C21          1.6980     0.0000    -7.1130 ca         1 L11      -0.179300
     13 C20          2.4890    -0.0000    -5.9760 ca         1 L11      -0.113000
     14 C25          3.8080     0.0060    -1.2020 ca         1 L11      -0.109000
     15 C11          4.5030     0.0000    -0.0000 ca         1 L11      -0.084400
     16 N10          5.9020     0.0010     0.0010 ns         1 L11      -0.035100
     17 C8           6.5750    -0.6620     0.9620 c          1 L11       0.577300
     18 O9           5.9720    -1.3440     1.7670 o          1 L11      -0.630100
     19 C6           8.0410    -0.5600     1.0360 ce         1 L11      -0.185400
     20 C7           8.6610    -1.2190     1.9870 c2         1 L11      -0.105200
     21 C2          10.1490    -1.2010     2.1890 c3         1 L11       0.228800
     22 F1          10.4610    -0.3640     3.2650 f          1 L11      -0.226300
     23 C5           8.7430     0.2940     0.0210 c3         1 L11       0.012800
     24 C4          10.1600     0.6210     0.4950 c3         1 L11       0.118500
     25 C3          10.8410    -0.6830     0.9260 c3         1 L11      -0.067400
     26 N26         10.9220     1.2380    -0.5990 n3         1 L11      -0.515600
     27 C31         12.1860     1.7100    -0.0190 c3         1 L11       0.090800
     28 C30         12.9570     2.5180    -1.0620 c3         1 L11       0.201400
     29 O29         12.2080     3.6770    -1.4250 os         1 L11      -0.392600
     30 C28         10.9970     3.2240    -2.0290 c3         1 L11       0.201400
     31 C27         10.1750     2.4350    -1.0090 c3         1 L11       0.090800
     32 H13          1.8830     0.0000     2.1370 ha         1 L11       0.118000
     33 H12          4.3470    -0.0030     2.1420 ha         1 L11       0.142000
     34 H171         1.0480    -0.8850    -2.5600 h1         1 L11       0.028700
     35 H172         1.0480     0.8850    -2.5600 h1         1 L11       0.028700
     36 H24         -0.0220    -0.0060    -3.7170 h4         1 L11       0.007100
     37 H22         -0.3020     0.0030    -7.8620 h4         1 L11      -0.016900
     38 H21          2.1520    -0.0000    -8.0970 ha         1 L11       0.113000
     39 H20          3.5700    -0.0000    -6.0520 ha         1 L11       0.119000
     40 H25          4.3480     0.0060    -2.1410 ha         1 L11       0.126000
     41 H10          6.4030     0.4720    -0.7270 hn         1 L11       0.175500
     42 H7           8.0630    -1.8130     2.6680 ha         1 L11       0.138000
     43 H2          10.4930    -2.2060     2.3980 h1         1 L11       0.033700
     44 H51          8.1900     1.2160    -0.1140 hc         1 L11       0.033200
     45 H52          8.7950    -0.2390    -0.9200 hc         1 L11       0.033200
     46 H41         10.1120     1.2990     1.3390 h1         1 L11       0.035700
     47 H3C1        11.8870    -0.4940     1.1370 hc         1 L11       0.042700
     48 H3C2        10.7510    -1.4180     0.1350 hc         1 L11       0.042700
     49 H311        11.9760     2.3370     0.8390 h1         1 L11       0.025450
     50 H312        12.7810     0.8570     0.2870 h1         1 L11       0.025450
     51 H301        13.9100     2.8220    -0.6480 h1         1 L11       0.015200
     52 H302        13.1190     1.9070    -1.9420 h1         1 L11       0.015200
     53 H281        10.4230     4.0780    -2.3680 h1         1 L11       0.015200
     54 H282        11.2330     2.5850    -2.8720 h1         1 L11       0.015200
     55 H271         9.2350     2.1350    -1.4590 h1         1 L11       0.025450
     56 H272         9.9850     3.0550    -0.1420 h1         1 L11       0.025450
@<TRIPOS>BOND
     1     1     2 1   
     2     2     3 ar  
     3     2     5 ar  
     4     3     4 ar  
     5     3    32 1   
     6     4    15 ar  
     7     4    33 1   
     8     5     6 1   
     9     5    14 ar  
    10     6     7 1   
    11     6    34 1   
    12     6    35 1   
    13     7     8 1   
    14     8     9 ar  
    15     8    13 ar  
    16     9    10 ar  
    17     9    36 1   
    18    10    11 ar  
    19    11    12 ar  
    20    11    37 1   
    21    12    13 ar  
    22    12    38 1   
    23    13    39 1   
    24    14    15 ar  
    25    14    40 1   
    26    15    16 1   
    27    16    17 1   
    28    16    41 1   
    29    17    18 2   
    30    17    19 1   
    31    19    20 2   
    32    19    23 1   
    33    20    21 1   
    34    20    42 1   
    35    21    22 1   
    36    21    25 1   
    37    21    43 1   
    38    23    24 1   
    39    23    44 1   
    40    23    45 1   
    41    24    25 1   
    42    24    26 1   
    43    24    46 1   
    44    25    47 1   
    45    25    48 1   
    46    26    27 1   
    47    26    31 1   
    48    27    28 1   
    49    27    49 1   
    50    27    50 1   
    51    28    29 1   
    52    28    51 1   
    53    28    52 1   
    54    29    30 1   
    55    30    31 1   
    56    30    53 1   
    57    30    54 1   
    58    31    55 1   
    59    31    56 1   
@<TRIPOS>SUBSTRUCTURE
     1 L11         1 TEMP              0 ****  ****    0 ROOT
