@<TRIPOS>MOLECULE
L12
   31    33     1     0     0
SMALL
bcc


@<TRIPOS>ATOM
      1 C4          0.0850   -0.0040   -0.0550 cc        1 L12     -0.142400
      2 C5         -0.7520   -0.0200   -1.2620 c3        1 L12     -0.000200
      3 C6         -1.3740   -1.3890   -1.5000 c3        1 L12     -0.043100
      4 C7         -2.2060   -1.4040   -2.7330 ca        1 L12     -0.038300
      5 C8         -1.6100   -1.3620   -4.0000 ca        1 L12     -0.246800
      6 C10        -2.4340   -1.3880   -5.1370 ca        1 L12      0.394200
      7 N12        -3.7790   -1.4540   -5.0820 nb        1 L12     -0.668000
      8 C13        -4.3410   -1.4960   -3.8580 ca        1 L12      0.394200
      9 C15        -3.6030   -1.4740   -2.6610 ca        1 L12     -0.246800
     10 C11         1.4780    0.0620   -0.0110 cd        1 L12     -0.102100
     11 C20        -1.6390   -0.0910    1.9180 ca        1 L12     -0.084000
     12 C21        -0.3800   -0.0320    1.3170 ca        1 L12     -0.088800
     13 C22         0.8010    0.0180    2.1510 ca        1 L12     -0.045200
     14 C24         0.7010    0.0070    3.5510 ca        1 L12     -0.145000
     15 C26        -0.5680   -0.0520    4.1050 ca        1 L12     -0.112000
     16 N11         1.9190    0.0710    1.3140 na        1 L12     -0.193400
     17 C28        -1.7230   -0.1000    3.3020 ca        1 L12     -0.157000
     18 H5C1       -1.5710    0.7430   -1.1560 hc        1 L12      0.049200
     19 H5C2       -0.1390    0.2670   -2.1590 hc        1 L12      0.049200
     20 H6C1       -0.5600   -2.1580   -1.5930 hc        1 L12      0.058200
     21 H6C2       -1.9960   -1.6690   -0.6070 hc        1 L12      0.058200
     22 H8         -0.5180   -1.3100   -4.1040 ha        1 L12      0.142000
     23 H10        -1.9980   -1.3560   -6.1520 h4        1 L12      0.020100
     24 H13        -5.4440   -1.5500   -3.8380 h4        1 L12      0.020100
     25 H15        -4.1170   -1.5120   -1.6920 ha        1 L12      0.142000
     26 H11         2.1930    0.1040   -0.8340 h4        1 L12      0.165000
     27 H20        -2.5430   -0.1280    1.2940 ha        1 L12      0.132000
     28 H24         1.5970    0.0450    4.1840 ha        1 L12      0.132000
     29 H26        -0.6800   -0.0620    5.2000 ha        1 L12      0.129000
     30 HA          2.8540    0.1320    1.6130 hn        1 L12      0.298700
     31 H28        -2.7080   -0.1450    3.7890 ha        1 L12      0.129000
@<TRIPOS>BOND
     1    1    2 1   
     2    1   10 2   
     3    1   12 1   
     4    2    3 1   
     5    2   18 1   
     6    2   19 1   
     7    3    4 1   
     8    3   20 1   
     9    3   21 1   
    10    4    5 ar  
    11    4    9 ar  
    12    5    6 ar  
    13    5   22 1   
    14    6    7 ar  
    15    6   23 1   
    16    7    8 ar  
    17    8    9 ar  
    18    8   24 1   
    19    9   25 1   
    20   10   16 1   
    21   10   26 1   
    22   11   12 ar  
    23   11   17 ar  
    24   11   27 1   
    25   12   13 ar  
    26   13   14 ar  
    27   13   16 1   
    28   14   15 ar  
    29   14   28 1   
    30   15   17 ar  
    31   15   29 1   
    32   16   30 1   
    33   17   31 1   
@<TRIPOS>SUBSTRUCTURE
     1 L12         1 TEMP              0 ****  ****    0 ROOT
