@<TRIPOS>MOLECULE
molecule
   31    33     1     0     0
SMALL
bcc


@<TRIPOS>ATOM
      1 C4           0.0000     0.0000     0.0000 cc         1 L12      -0.159400
      2 C5          -0.8960     0.0010    -1.2110 c3         1 L12       0.002800
      3 C6          -1.2000    -1.4400    -1.6220 c3         1 L12      -0.037100
      4 C7          -2.0960    -1.4380    -2.8340 ca         1 L12      -0.047300
      5 C8          -1.5610    -1.4380    -4.1130 ca         1 L12      -0.254300
      6 C10         -2.4140    -1.4390    -5.2000 ca         1 L12       0.420200
      7 N12         -3.7210    -1.4380    -5.0310 nb         1 L12      -0.695000
      8 C13         -4.2650    -1.4380    -3.8300 ca         1 L12       0.420200
      9 C15         -3.4750    -1.4440    -2.6950 ca         1 L12      -0.254300
     10 C11          1.3430     0.0000     0.0000 cd         1 L12      -0.096100
     11 C20         -1.6710     0.0000     2.0340 ca         1 L12      -0.080000
     12 C21         -0.4280     0.0060     1.4010 ca         1 L12      -0.097800
     13 C22          0.7500    -0.0000     2.1680 ca         1 L12      -0.037200
     14 C24          0.6620    -0.0000     3.5550 ca         1 L12      -0.144000
     15 C26         -0.5760     0.0010     4.1610 ca         1 L12      -0.108000
     16 N11          1.8090     0.0000     1.2860 na         1 L12      -0.183400
     17 C28         -1.7370    -0.0000     3.4000 ca         1 L12      -0.156000
     18 H5C1        -0.4000     0.5130    -2.0260 hc         1 L12       0.050700
     19 H5C2        -1.8220     0.5120    -0.9740 hc         1 L12       0.050700
     20 H6C1        -1.6960    -1.9510    -0.8060 hc         1 L12       0.056200
     21 H6C2        -0.2740    -1.9510    -1.8580 hc         1 L12       0.056200
     22 H8          -0.4870    -1.4390    -4.2580 ha         1 L12       0.137500
     23 H10         -2.0040    -1.4390    -6.2020 h4         1 L12       0.021600
     24 H13         -5.3430    -1.4400    -3.7310 h4         1 L12       0.021600
     25 H15         -3.9280    -1.4450    -1.7110 ha         1 L12       0.137500
     26 H11          1.9640     0.0000    -0.8870 h4         1 L12       0.165000
     27 H20         -2.5810    -0.0010     1.4470 ha         1 L12       0.129000
     28 H24          1.5620     0.0010     4.1580 ha         1 L12       0.125000
     29 H26         -0.6430     0.0000     5.2420 ha         1 L12       0.130000
     30 HA           2.7750     0.0000     1.5470 hn         1 L12       0.296700
     31 H28         -2.7020     0.0000     3.8910 ha         1 L12       0.129000
@<TRIPOS>BOND
     1     1     2 1
     2     1    10 2
     3     1    12 1
     4     2     3 1
     5     2    18 1
     6     2    19 1
     7     3     4 1
     8     3    20 1
     9     3    21 1
    10     4     5 ar
    11     4     9 ar
    12     5     6 ar
    13     5    22 1
    14     6     7 ar
    15     6    23 1
    16     7     8 ar
    17     8     9 ar
    18     8    24 1
    19     9    25 1
    20    10    16 1
    21    10    26 1
    22    11    12 ar
    23    11    17 ar
    24    11    27 1
    25    12    13 ar
    26    13    14 ar
    27    13    16 1
    28    14    15 ar
    29    14    28 1
    30    15    17 ar
    31    15    29 1
    32    16    30 1
    33    17    31 1
@<TRIPOS>SUBSTRUCTURE
     1 L12         1 TEMP              0 ****  ****    0 ROOT
