@<TRIPOS>MOLECULE
L13
   24    25     1     0     0
SMALL
bcc


@<TRIPOS>ATOM
      1 N14        -0.0530    0.2750   -0.1200 nh        1 L13     -0.587800
      2 N5          1.2840    0.0880   -0.0360 n         1 L13     -0.240700
      3 C1          2.0750    0.0070    1.1540 c         1 L13      0.447400
      4 S6          1.5700    0.1260    2.6460 s         1 L13     -0.506400
      5 N2          3.3700   -0.1900    0.6540 n         1 L13     -0.247900
      6 N3          3.4300   -0.2550   -0.6900 nc        1 L13     -0.482300
      7 C4          2.1740   -0.0790   -1.1500 cd        1 L13      0.447500
      8 C7          1.7390   -0.0720   -2.5470 ca        1 L13     -0.120900
      9 C12         0.7120   -0.9410   -2.9400 ca        1 L13     -0.077000
     10 C11         0.2890   -0.9670   -4.2660 ca        1 L13     -0.144000
     11 C10         0.8870   -0.1250   -5.2040 ca        1 L13     -0.103000
     12 C9          1.9050    0.7420   -4.8150 ca        1 L13     -0.142000
     13 C8          2.3460    0.7820   -3.4850 ca        1 L13     -0.028300
     14 C13         3.4340    1.7120   -3.1050 c3        1 L13     -0.062800
     15 H141       -0.5100   -0.3750    0.5170 hn        1 L13      0.371300
     16 H142       -0.2730    1.2140    0.2050 hn        1 L13      0.371300
     17 HN2         4.1820   -0.3620    1.2040 hn        1 L13      0.389500
     18 H12         0.2380   -1.6030   -2.2000 ha        1 L13      0.144000
     19 H11        -0.5170   -1.6510   -4.5710 ha        1 L13      0.138000
     20 H10         0.5540   -0.1440   -6.2520 ha        1 L13      0.136000
     21 H9          2.3730    1.4060   -5.5580 ha        1 L13      0.138000
     22 H131        3.5820    2.4970   -3.8870 hc        1 L13      0.053033
     23 H132        4.3950    1.1500   -2.9860 hc        1 L13      0.053033
     24 H133        3.2040    2.2210   -2.1360 hc        1 L13      0.053033
@<TRIPOS>BOND
     1    1    2 1   
     2    1   15 1   
     3    1   16 1   
     4    2    3 1   
     5    2    7 1   
     6    3    4 2   
     7    3    5 1   
     8    5    6 1   
     9    5   17 1   
    10    6    7 2   
    11    7    8 1   
    12    8    9 ar  
    13    8   13 ar  
    14    9   10 ar  
    15    9   18 1   
    16   10   11 ar  
    17   10   19 1   
    18   11   12 ar  
    19   11   20 1   
    20   12   13 ar  
    21   12   21 1   
    22   13   14 1   
    23   14   22 1   
    24   14   23 1   
    25   14   24 1   
@<TRIPOS>SUBSTRUCTURE
     1 L13         1 TEMP              0 ****  ****    0 ROOT
