@<TRIPOS>MOLECULE
L14
   22    20     1     0     0
SMALL
bcc


@<TRIPOS>ATOM
      1 OAA       -92.5120  247.3350 -367.8240 o         1 L14     -0.585000
      2 OAC       -90.5820  248.2220 -367.1140 o         1 L14     -0.585000
      3 OAD        98.9570 -247.6310  371.6300 o         1 L14     -0.579500
      4 CAE       -90.3880  244.9740 -367.1180 c3        1 L14     -0.206000
      5 CAF       -90.1450  243.7560 -366.2600 c3        1 L14     -0.191000
      6 CAG        95.4260 -245.1070  371.7600 c3        1 L14     -0.167000
      7 CAH        96.6180 -245.9740  371.7040 c2        1 L14     -0.219000
      8 CAI       -91.4200  247.2690 -367.1780 c2        1 L14      0.286000
      9 CAJ        97.9800 -247.9100  370.8760 c2        1 L14      0.341000
     10 CAK       -91.1250  246.0270 -366.4300 c1        1 L14     -0.089000
     11 CAL        96.7450 -247.0400  370.9110 c2        1 L14     -0.176000
     12 HAE       -89.5780  242.9790 -366.8290 hc        1 L14      0.055667
     13 HAEA      -89.4000  245.3920 -367.4670 hc        1 L14      0.101000
     14 HAF       -90.9620  244.6740 -368.0430 hc        1 L14      0.101000
     15 HAFA      -89.5580  244.0310 -365.3510 hc        1 L14      0.055667
     16 HAG        95.9450 -247.3540  370.2240 ha        1 L14      0.093000
     17 HAGA       94.9950 -245.1020  372.7930 hc        1 L14      0.051333
     18 HAH        94.6300 -245.4480  371.0530 hc        1 L14      0.051333
     19 HAHA       97.4480 -245.6970  372.3770 ha        1 L14      0.131000
     20 HAK        95.6970 -244.0530  371.4970 hc        1 L14      0.051333
     21 HAL       -91.1150  243.3160 -365.9250 hc        1 L14      0.055667
     22 OAB        97.9720 -248.8930  370.0770 o         1 L14     -0.579500
@<TRIPOS>BOND
     1    1    8 1   
     2    2    8 1   
     3    3    9 1   
     4    4    5 1   
     5    4   10 1   
     6    4   13 1   
     7    4   14 1   
     8    5   12 1   
     9    5   15 1   
    10    5   21 1   
    11    6    7 1   
    12    6   17 1   
    13    6   18 1   
    14    6   20 1   
    15    7   11 1   
    16    7   19 1   
    17    8   10 1   
    18    9   11 1   
    19    9   22 1   
    20   11   16 1   
@<TRIPOS>SUBSTRUCTURE
     1 L14         1 TEMP              0 ****  ****    0 ROOT
