@<TRIPOS>MOLECULE
molecule
   22    22     1     0     0
SMALL
bcc


@<TRIPOS>ATOM
      1 OAA          0.0000     0.0000     0.0000 o          1 L14      -0.876800
      2 OAC          1.9470     0.0010    -1.0460 o          1 L14      -0.876800
      3 OAD          5.5010    -0.3440     4.7230 o          1 L14      -0.876800
      4 CAE          3.5990     0.0010     1.0280 c3         1 L14      -0.062400
      5 CAF          4.3630     0.0000     2.3530 c3         1 L14      -0.062400
      6 CAG          1.7260    -1.2500     2.1070 c3         1 L14      -0.062400
      7 CAH          2.4890    -1.2510     3.4330 c3         1 L14      -0.062400
      8 CAI          1.3420     0.0000     0.0000 c          1 L14       0.896600
      9 CAJ          4.7460    -1.2500     4.4610 c          1 L14       0.896600
     10 CAK          2.0950    -0.0000     1.3060 c3         1 L14      -0.161700
     11 CAL          3.9940    -1.2500     3.1550 c3         1 L14      -0.161700
     12 HAE          3.8610    -0.8850     0.4620 hc         1 L14       0.027575
     13 HAEA         3.8600     0.8870     0.4630 hc         1 L14       0.027575
     14 HAF          5.4280    -0.0010     2.1550 hc         1 L14       0.027575
     15 HAFA         4.0980     0.8830     2.9220 hc         1 L14       0.027575
     16 HAG          0.6610    -1.2490     2.3060 hc         1 L14       0.027575
     17 HAGA         1.9910    -2.1330     1.5390 hc         1 L14       0.027575
     18 HAH          2.2280    -2.1370     3.9980 hc         1 L14       0.027575
     19 HAHA         2.2270    -0.3650     3.9990 hc         1 L14       0.027575
     20 HAK          1.8350     0.8830     1.8770 hc         1 L14       0.034200
     21 HAL          4.2540    -2.1330     2.5830 hc         1 L14       0.034200
     22 OAB          4.5960    -2.2700     5.3210 o          1 L14      -0.876800
@<TRIPOS>BOND
     1     8     1 1
     2     9    22 1
     3     2     8 1
     4     3     9 1
     5     5     4 1
     6     4    10 1
     7     4    12 1
     8     4    13 1
     9     5    11 1
    10     5    14 1
    11     5    15 1
    12     7     6 1
    13    10     6 1
    14     6    16 1
    15     6    17 1
    16    11     7 1
    17     7    18 1
    18     7    19 1
    19    10     8 1
    20     9    11 1
    21    10    20 1
    22    11    21 1
@<TRIPOS>SUBSTRUCTURE
     1 L14         1 TEMP              0 ****  ****    0 ROOT
