@<TRIPOS>MOLECULE
molecule
   31    32     1     0     0
SMALL
bcc


@<TRIPOS>ATOM
      1 C1           0.0000     0.0000     0.0000 c3         1 L15      -0.126400
      2 C2           1.4740     0.0000     0.0000 cc         1 L15       0.334600
      3 N3           2.1300     0.0000     1.1630 nd         1 L15      -0.483800
      4 N4           3.4200    -0.0010     0.7860 na         1 L15      -0.005600
      5 C5           3.6000    -0.0010    -0.5660 cd         1 L15      -0.112300
      6 C6           2.3400    -0.0010    -1.1070 cc         1 L15      -0.270300
      7 C7           2.0780    -0.0030    -2.5200 ca         1 L15       0.048000
      8 C8           1.9520    -1.2100    -3.2040 ca         1 L15      -0.105000
      9 C9           1.6980    -1.2120    -4.5750 ca         1 L15      -0.115000
     10 C10          1.5710    -0.0040    -5.2630 ca         1 L15      -0.137300
     11 C11          1.3010    -0.0060    -6.7290 c3         1 L15      -0.037100
     12 C12         -0.1930    -0.0060    -7.0770 c3         1 L15       0.071800
     13 N13         -0.4230    -0.0280    -8.4960 nz         1 L15      -0.796600
     14 C14          1.6980     1.2040    -4.5770 ca         1 L15      -0.115000
     15 C15          1.9510     1.2050    -3.2060 ca         1 L15      -0.105000
     16 H1C1        -0.3610     0.8840    -0.5110 hc         1 L15       0.052033
     17 H1C2        -0.3610    -0.8850    -0.5100 hc         1 L15       0.052033
     18 H1C3        -0.3610     0.0010     1.0210 hc         1 L15       0.052033
     19 H4           4.1800    -0.0010     1.4380 hn         1 L15       0.325700
     20 H5           4.5410    -0.0020    -1.1010 h4         1 L15       0.184000
     21 H8           2.0510    -2.1480    -2.6700 ha         1 L15       0.155000
     22 H15          2.0500     2.1440    -2.6740 ha         1 L15       0.155000
     23 H9           1.6000    -2.1510    -5.1070 ha         1 L15       0.129000
     24 H111         1.7580     0.8730    -7.1660 hc         1 L15       0.062700
     25 H112         1.7570    -0.8870    -7.1640 hc         1 L15       0.062700
     26 H14          1.5990     2.1420    -5.1110 ha         1 L15       0.129000
     27 H121        -0.6570    -0.8780    -6.6330 hx         1 L15       0.113200
     28 H122        -0.6500     0.8840    -6.6620 hx         1 L15       0.113200
     29 H131        -1.4080    -0.0250    -8.6750 hn         1 L15       0.456133
     30 H132        -0.0160    -0.8540    -8.8870 hn         1 L15       0.456133
     31 H133        -0.0060     0.7800    -8.9140 hn         1 L15       0.456133
@<TRIPOS>BOND
     1     1     2 1
     2     2     3 2
     3     3     4 1
     4     4     5 1
     5     2     6 1
     6     5     6 2
     7     6     7 1
     8     7     8 ar
     9     8     9 ar
    10     9    10 ar
    11    10    11 1
    12    11    12 1
    13    12    13 1
    14    10    14 ar
    15     7    15 ar
    16    14    15 ar
    17     1    16 1
    18     1    17 1
    19     1    18 1
    20     4    19 1
    21     5    20 1
    22     8    21 1
    23    15    22 1
    24     9    23 1
    25    11    24 1
    26    11    25 1
    27    14    26 1
    28    12    27 1
    29    12    28 1
    30    13    29 1
    31    13    30 1
    32    31    13 1
@<TRIPOS>SUBSTRUCTURE
     1 L15         1 TEMP              0 ****  ****    0 ROOT
