@<TRIPOS>MOLECULE
molecule
   53    55     1     0     0
SMALL
bcc


@<TRIPOS>ATOM
      1 C8           0.0000     0.0000     0.0000 ca         1 L17      -0.090000
      2 C2           1.3770     0.0000     0.0000 ca         1 L17      -0.160600
      3 N1           2.0740     0.0000     1.1340 na         1 L17       0.169600
      4 C4           1.4680     0.0010     2.3290 ca         1 L17      -0.115300
      5 C5           0.0830     0.0010     2.4080 ca         1 L17      -0.114000
      6 C6          -0.6550     0.0020     1.2280 ca         1 L17      -0.132000
      7 C11          2.1310    -0.0010    -1.3080 c3         1 L17       0.490900
      8 C1           2.4020     1.4280    -1.7810 c3         1 L17       0.019300
      9 N18          3.1140     1.4080    -3.0220 nu         1 L17      -0.331200
     10 C21          3.4820     2.5800    -3.7120 ca         1 L17       0.103500
     11 N2           4.1490     2.4990    -4.8720 na         1 L17       0.095600
     12 C10          4.5110     3.5880    -5.5530 ca         1 L17       0.011400
     13 C24          4.2120     4.8530    -5.0850 ca         1 L17      -0.031600
     14 C25          3.5200     4.9660    -3.8840 ca         1 L17      -0.067000
     15 C3           3.1490     3.8200    -3.1860 ca         1 L17      -0.209000
     16 O28          4.4660     1.2520    -5.3700 o          1 L17      -0.397000
     17 Cl2          4.6650     6.2800    -5.9360 cl         1 L17      -0.066400
     18 C33          5.2570     3.3850    -6.8460 c3         1 L17      -0.119100
     19 C34          4.3460     3.2730    -8.0530 c          1 L17       0.693100
     20 N37          5.0710     3.0400    -9.2070 ns         1 L17      -0.591900
     21 O38          3.1230     3.3750    -7.9910 o          1 L17      -0.584100
     22 C39          4.4360     2.8870   -10.5050 c3         1 L17       0.156000
     23 C40          5.3250     3.3130   -11.6240 ca         1 L17      -0.089300
     24 C43          6.5150     2.6270   -11.8700 ca         1 L17      -0.116000
     25 C44          7.3460     3.0260   -12.9180 ca         1 L17       0.021400
     26 C45          6.9850     4.1080   -13.7200 ca         1 L17      -0.118000
     27 C50          4.9650     4.3950   -12.4260 ca         1 L17      -0.111000
     28 C9           5.7960     4.7940   -13.4750 ca         1 L17      -0.121000
     29 F1           3.3250    -0.6550    -1.2110 f          1 L17      -0.205800
     30 F2           1.4450    -0.6530    -2.2930 f          1 L17      -0.205800
     31 Cl1          8.8150     2.1820   -13.2210 cl         1 L17      -0.099400
     32 O1           3.4510    -0.0000     1.1050 o          1 L17      -0.342000
     33 C7           3.9300     1.4430   -10.6430 c3         1 L17      -0.103100
     34 H8          -0.5570     0.0000    -0.9290 ha         1 L17       0.174000
     35 H4           2.0610     0.0000     3.2360 h4         1 L17       0.199000
     36 H5          -0.4150     0.0020     3.3700 ha         1 L17       0.164000
     37 H6          -1.7380     0.0020     1.2660 ha         1 L17       0.154000
     38 H11          2.9940     1.9460    -1.0350 h1         1 L17       0.063200
     39 H12          1.4610     1.9470    -1.9150 h1         1 L17       0.063200
     40 H18          3.3620     0.5230    -3.4170 hn         1 L17       0.330700
     41 H25          3.2700     5.9440    -3.4920 ha         1 L17       0.156000
     42 H3           2.6100     3.8950    -2.2490 ha         1 L17       0.159000
     43 H331         5.8440     2.4780    -6.7690 hc         1 L17       0.096200
     44 H332         5.9280     4.2220    -6.9940 hc         1 L17       0.096200
     45 H37          6.0680     2.9750    -9.1460 hn         1 L17       0.316500
     46 H39          3.5690     3.5350   -10.5190 h1         1 L17       0.069700
     47 H43          6.7950     1.7870   -11.2470 ha         1 L17       0.147000
     48 H45          7.6300     4.4180   -14.5340 ha         1 L17       0.145000
     49 H50          4.0410     4.9270   -12.2350 ha         1 L17       0.141000
     50 H9           5.5160     5.6350   -14.0980 ha         1 L17       0.140000
     51 H71          4.7580     0.7560   -10.5160 hc         1 L17       0.047700
     52 H72          3.4940     1.3050   -11.6250 hc         1 L17       0.047700
     53 H73          3.1800     1.2490    -9.8850 hc         1 L17       0.047700
@<TRIPOS>BOND
     1     1     2 ar
     2     1     6 ar
     3     1    34 1
     4     2     3 2
     5     2     7 1
     6     3     4 1
     7     3    32 1
     8     4     5 ar
     9     4    35 1
    10     5     6 ar
    11     5    36 1
    12     6    37 1
    13     7     8 1
    14     7    29 1
    15     7    30 1
    16     8     9 1
    17     8    38 1
    18     8    39 1
    19     9    10 1
    20     9    40 1
    21    10    11 1
    22    10    15 ar
    23    11    12 2
    24    11    16 1
    25    12    13 ar
    26    12    18 1
    27    13    14 ar
    28    13    17 1
    29    14    15 ar
    30    14    41 1
    31    15    42 1
    32    18    19 1
    33    18    43 1
    34    18    44 1
    35    19    20 1
    36    19    21 2
    37    20    22 1
    38    20    45 1
    39    22    23 1
    40    22    33 1
    41    22    46 1
    42    23    24 ar
    43    23    27 ar
    44    24    25 ar
    45    24    47 1
    46    25    26 ar
    47    25    31 1
    48    26    28 ar
    49    26    48 1
    50    27    28 ar
    51    27    49 1
    52    28    50 1
    53    33    51 1
    54    33    52 1
    55    33    53 1
@<TRIPOS>SUBSTRUCTURE
     1 L17         1 TEMP              0 ****  ****    0 ROOT
