@<TRIPOS>MOLECULE
L18
   48    48     1     0     0
SMALL
bcc


@<TRIPOS>ATOM
      1 C8          1.0880   -3.0500   -1.5160 c3        1 L18     -0.171000
      2 C9          0.2180   -3.0510   -2.7450 c3        1 L18     -0.201000
      3 C10         4.4040   -0.5660    3.9020 c2        1 L18     -0.197000
      4 C11         3.1560   -0.5530    3.4010 c2        1 L18     -0.068000
      5 C12         2.2210   -1.6840    3.6330 c3        1 L18     -0.186000
      6 C15         1.2760    0.6610    2.0830 c3        1 L18     -0.144000
      7 C16         0.7910    2.0810    2.2060 c2        1 L18     -0.134000
      8 C17         1.6130    3.1530    2.2670 c2        1 L18     -0.163000
      9 C18         3.0380    2.9110    1.9980 c2        1 L18     -0.091000
     10 C19         3.3830    1.6670    2.3100 c1        1 L18     -0.204000
     11 C13         2.6900    0.5590    2.6000 c2        1 L18     -0.013000
     12 C1          2.4000    1.1430   -2.2990 c3        1 L18     -0.110000
     13 C2          1.3030    1.4380   -3.3140 c3        1 L18     -0.158000
     14 C3         -0.0600    0.9640   -2.8480 c3        1 L18     -0.171000
     15 C5         -0.0260    0.4330   -1.4210 c3        1 L18     -0.001000
     16 C6          1.0550   -0.5400   -1.2040 c2        1 L18     -0.720000
     17 C7          0.8080   -1.8590   -0.6080 c3        1 L18     -0.004000
     18 N1          2.3410   -0.2540   -1.7660 n4        1 L18      0.194000
     19 H8         -0.2690   -1.9010   -0.2900 hc        1 L18      0.049000
     20 H9C1       -0.8530   -3.1980   -2.4640 hc        1 L18      0.067333
     21 H9C2        0.5170   -3.8710   -3.4410 hc        1 L18      0.067333
     22 H9C3        0.3040   -2.0730   -3.2790 hc        1 L18      0.067333
     23 H101        5.1080    0.2580    3.7270 ha        1 L18      0.118500
     24 H102        4.7800   -1.3960    4.5130 ha        1 L18      0.118500
     25 H7C1        0.9170   -3.9960   -0.9370 hc        1 L18      0.054000
     26 H7C2        1.4250   -2.0000    0.3280 hc        1 L18      0.049000
     27 H11         2.1680   -3.0530   -1.8210 hc        1 L18      0.054000
     28 H121        1.7810   -2.0300    2.6640 hc        1 L18      0.084333
     29 H122        1.3870   -1.3660    4.3080 hc        1 L18      0.084333
     30 H123        2.7460   -2.5470    4.1110 hc        1 L18      0.084333
     31 H15         0.6230   -0.0030    2.7100 hc        1 L18      0.145000
     32 H16         1.1660    0.3200    1.0090 hc        1 L18      0.145000
     33 H17        -0.3030    2.1950    2.2160 ha        1 L18      0.133000
     34 H18         1.2580    4.1810    2.3970 ha        1 L18      0.135000
     35 H19         3.6450    3.6650    1.4920 ha        1 L18      0.147000
     36 H1C1        2.5060   -0.8950   -2.5580 hn        1 L18      0.164000
     37 H1C2        2.2980    1.8400   -1.4210 hx        1 L18      0.109000
     38 H2C1        3.4100    1.2950   -2.7700 hx        1 L18      0.109000
     39 H2C2        1.2970    2.5470   -3.4820 hc        1 L18      0.084000
     40 H3C1        1.5600    0.9570   -4.2940 hc        1 L18      0.084000
     41 H3C2       -0.4180    0.1470   -3.5280 hc        1 L18      0.076000
     42 H5C1       -0.7970    1.8040   -2.9220 hc        1 L18      0.076000
     43 H5C2        0.0720    1.3160   -0.7250 hc        1 L18      0.050500
     44 H6         -1.0110   -0.0520   -1.1900 hc        1 L18      0.050500
     45 H141        3.2860    0.1510    0.1110 hx        1 L18      0.112667
     46 H142        4.4320   -0.1920   -1.2850 hx        1 L18      0.112667
     47 H143        3.4740   -1.5530   -0.5140 hx        1 L18      0.112667
     48 C14         3.4580   -0.4710   -0.8070 c3        1 L18     -0.203000
@<TRIPOS>BOND
     1    1    2 1   
     2    1   17 1   
     3    1   25 1   
     4    1   27 1   
     5    2   20 1   
     6    2   21 1   
     7    2   22 1   
     8    3    4 1   
     9    3   23 1   
    10    3   24 1   
    11    4    5 1   
    12    4   11 1   
    13    5   28 1   
    14    5   29 1   
    15    5   30 1   
    16    6    7 1   
    17    6   11 1   
    18    6   31 1   
    19    6   32 1   
    20    7    8 1   
    21    7   33 1   
    22    8    9 1   
    23    8   34 1   
    24    9   10 1   
    25    9   35 1   
    26   10   11 1   
    27   12   13 1   
    28   12   18 1   
    29   12   37 1   
    30   12   38 1   
    31   13   14 1   
    32   13   39 1   
    33   13   40 1   
    34   14   15 1   
    35   14   41 1   
    36   14   42 1   
    37   15   16 1   
    38   15   43 1   
    39   15   44 1   
    40   16   17 1   
    41   16   18 1   
    42   17   19 1   
    43   17   26 1   
    44   18   36 1   
    45   18   48 1   
    46   45   48 1   
    47   46   48 1   
    48   47   48 1   
@<TRIPOS>SUBSTRUCTURE
     1 L18         1 TEMP              0 ****  ****    0 ROOT
