@<TRIPOS>MOLECULE
molecule
   54    58     1     0     0
SMALL
bcc


@<TRIPOS>ATOM
      1 O1           0.0000     0.0000     0.0000 o          1 L19      -0.847800
      2 C22          1.2090     0.0000     0.0000 c          1 L19       0.893600
      3 O2           1.8790     0.0000     1.1630 o          1 L19      -0.847800
      4 C21          1.9630    -0.0060    -1.3040 c3         1 L19      -0.204400
      5 C20          0.9690    -0.0120    -2.4680 c3         1 L19       0.040300
      6 N1           1.7030    -0.0180    -3.7360 na         1 L19      -0.036400
      7 C13          2.1010     1.1050    -4.4190 cc         1 L19       0.045700
      8 C14          1.8580     2.4960    -3.9910 ca         1 L19      -0.028800
      9 C15          2.8860     3.4410    -4.0570 ca         1 L19      -0.103000
     10 C16          2.6530     4.7400    -3.6560 ca         1 L19      -0.130500
     11 C17          1.4040     5.1090    -3.1890 ca         1 L19      -0.128000
     12 C18          0.3810     4.1790    -3.1200 ca         1 L19      -0.130500
     13 C19          0.5990     2.8780    -3.5240 ca         1 L19      -0.103000
     14 C6           2.7640     0.7260    -5.5680 cd         1 L19      -0.137400
     15 C7           2.7670    -0.7450    -5.5810 ca         1 L19      -0.082800
     16 C8           3.2750    -1.6990    -6.4630 ca         1 L19      -0.081000
     17 C9           3.1120    -3.0380    -6.1870 ca         1 L19      -0.089300
     18 C23          3.6590    -4.0710    -7.1380 cx         1 L19      -0.067400
     19 C24          3.6290    -5.5330    -6.6860 cx         1 L19      -0.144400
     20 C25          2.6640    -5.0470    -7.7690 cx         1 L19      -0.144400
     21 C10          2.4460    -3.4410    -5.0380 ca         1 L19      -0.127000
     22 C11          1.9390    -2.5110    -4.1570 ca         1 L19      -0.121000
     23 C12          2.0980    -1.1510    -4.4140 ca         1 L19      -0.029200
     24 C5           3.3540     1.6210    -6.5850 ca         1 L19       0.021200
     25 C4           4.6830     2.0490    -6.4830 ca         1 L19      -0.214300
     26 C3           5.1940     2.8830    -7.4540 ca         1 L19       0.367200
     27 N            4.4520     3.2800    -8.4700 nb         1 L19      -0.676000
     28 C2           3.1950     2.9030    -8.6090 ca         1 L19       0.321200
     29 C1           2.6010     2.0620    -7.6850 ca         1 L19       0.026800
     30 O            1.3070     1.6720    -7.8370 os         1 L19      -0.299900
     31 C            0.6110     2.1650    -8.9830 c3         1 L19       0.125700
     32 H2           2.5860     0.8780    -1.3660 hc         1 L19       0.044700
     33 H3           2.5850    -0.8910    -1.3570 hc         1 L19       0.044700
     34 H4           0.3460    -0.8960    -2.4070 h1         1 L19       0.072200
     35 H5           0.3460     0.8730    -2.4150 h1         1 L19       0.072200
     36 H6           3.8640     3.1530    -4.4230 ha         1 L19       0.142000
     37 H7           3.4490     5.4720    -3.7070 ha         1 L19       0.125500
     38 H8           1.2260     6.1300    -2.8730 ha         1 L19       0.120000
     39 H9          -0.5950     4.4760    -2.7550 ha         1 L19       0.125500
     40 H10         -0.2030     2.1510    -3.4690 ha         1 L19       0.142000
     41 H11          3.8800    -1.3890    -7.3070 ha         1 L19       0.123000
     42 H12          4.4990    -3.8090    -7.7690 hc         1 L19       0.075700
     43 H13          3.1880    -5.7120    -5.7130 hc         1 L19       0.071700
     44 H14          4.4520    -6.1460    -7.0330 hc         1 L19       0.071700
     45 H15          2.8970    -5.3640    -8.7790 hc         1 L19       0.071700
     46 H16          1.6330    -4.9300    -7.4580 hc         1 L19       0.071700
     47 H17          2.3240    -4.4970    -4.8310 ha         1 L19       0.125000
     48 H18          1.4210    -2.8370    -3.2630 ha         1 L19       0.141000
     49 H19          5.3460     1.5890    -5.7600 ha         1 L19       0.151000
     50 H20          6.2220     3.2180    -7.3820 h4         1 L19       0.015100
     51 H21          2.6200     3.2560    -9.4570 h4         1 L19       0.017100
     52 H22          0.5840     3.2480    -8.9510 h1         1 L19       0.037700
     53 H23          1.1230     1.8430    -9.8820 h1         1 L19       0.037700
     54 H24         -0.4010     1.7780    -8.9860 h1         1 L19       0.037700
@<TRIPOS>BOND
     1    11    12 ar
     2    11    10 ar
     3    12    13 ar
     4    10     9 ar
     5     1     2 1
     6    13     8 ar
     7     9     8 ar
     8     8     7 1
     9     2     3 1
    10     2     4 1
    11     4     5 1
    12     5     6 1
    13     7     6 1
    14     7    14 2
    15    26    25 ar
    16    26    27 ar
    17     6    23 1
    18    25    24 ar
    19    27    28 ar
    20    24    14 1
    21    24    29 ar
    22    14    15 1
    23    28    29 ar
    24    29    30 1
    25    23    15 ar
    26    23    22 ar
    27    30    31 1
    28    15    16 ar
    29    22    21 ar
    30    16    17 ar
    31    21    17 ar
    32    17    18 1
    33    18    20 1
    34    18    19 1
    35    20    19 1
    36     4    32 1
    37     4    33 1
    38     5    34 1
    39     5    35 1
    40     9    36 1
    41    10    37 1
    42    11    38 1
    43    12    39 1
    44    13    40 1
    45    16    41 1
    46    18    42 1
    47    19    43 1
    48    19    44 1
    49    20    45 1
    50    20    46 1
    51    21    47 1
    52    22    48 1
    53    25    49 1
    54    26    50 1
    55    28    51 1
    56    31    52 1
    57    31    53 1
    58    31    54 1
@<TRIPOS>SUBSTRUCTURE
     1 L19         1 TEMP              0 ****  ****    0 ROOT
