@<TRIPOS>MOLECULE
molecule
   49    51     1     0     0
SMALL
bcc


@<TRIPOS>ATOM
      1 C1           0.0000     0.0000     0.0000 cc         1 L1B       0.289700
      2 N1           1.3270     0.0000     0.0000 nc         1 L1B      -0.245000
      3 C2           2.0050     0.0000     1.1400 cd         1 L1B       0.418200
      4 N2           1.3960    -0.0020     2.3160 nd         1 L1B      -0.225000
      5 C3           0.0760    -0.0020     2.4030 cc         1 L1B       0.171300
      6 C4          -0.6800    -0.0060     1.2330 cc         1 L1B      -0.265000
      7 N3          -0.7030    -0.0000    -1.1910 nv         1 L1B      -0.619100
      8 N4           3.3860     0.0010     1.0980 nv         1 L1B      -1.017800
      9 C5          -0.6010    -0.0030     3.7490 c3         1 L1B      -0.124700
     10 C6          -0.8310     1.4390     4.2070 c3         1 L1B      -0.085100
     11 C7          -2.8390    -1.1170     1.8180 ca         1 L1B      -0.101000
     12 C8          -4.1950    -1.1400     1.8760 ca         1 L1B      -0.079000
     13 C9          -4.9370    -0.0460     1.3970 ca         1 L1B      -0.080000
     14 C10         -4.2670     1.0810     0.8570 ca         1 L1B       0.014700
     15 C11         -2.8630     1.0870     0.8120 ca         1 L1B      -0.160000
     16 C12         -2.1620    -0.0070     1.2840 ca         1 L1B       0.100000
     17 C13         -6.3420    -0.0440     1.4440 cc         1 L1B       0.023000
     18 C14         -7.0040     1.0520     0.9630 cc         1 L1B      -0.187000
     19 C15         -6.2840     2.1250     0.4440 cd         1 L1B       0.012700
     20 N5          -4.9730     2.1200     0.4020 na         1 L1B       0.060900
     21 C16         -4.2690     3.2780    -0.1550 c3         1 L1B      -0.010700
     22 C17         -3.9580     3.0250    -1.6310 c3         1 L1B      -0.110400
     23 C18         -3.2220     4.2350    -2.2120 c3         1 L1B       0.132400
     24 O1          -2.9310     3.9990    -3.5910 os         1 L1B      -0.402600
     25 C19         -2.2490     5.1570    -4.0740 c3         1 L1B       0.113700
     26 HN31        -0.6330     0.7810    -1.8130 hn         1 L1B       0.292200
     27 HN32        -1.2360    -0.8040    -1.4570 hn         1 L1B       0.292200
     28 HN41         3.8850     0.8670     1.0500 hn         1 L1B       0.457300
     29 HN42         3.8880    -0.8650     1.1210 hn         1 L1B       0.457300
     30 H51          0.0270    -0.5140     4.4690 hc         1 L1B       0.065700
     31 H52         -1.5530    -0.5140     3.6740 hc         1 L1B       0.065700
     32 H61         -0.1410     1.6780     5.0080 hc         1 L1B       0.042700
     33 H62         -1.8480     1.5470     4.5620 hc         1 L1B       0.042700
     34 H63         -0.6650     2.1130     3.3750 hc         1 L1B       0.042700
     35 H8          -4.7060    -2.0010     2.2900 ha         1 L1B       0.168000
     36 H11         -2.3340     1.9900     0.5340 ha         1 L1B       0.166000
     37 H13         -6.8860    -0.8870     1.8510 ha         1 L1B       0.182000
     38 H14         -8.0860     1.0850     0.9840 ha         1 L1B       0.190000
     39 H15         -6.8210     2.9870     0.0670 h4         1 L1B       0.198000
     40 H161        -3.3440     3.4340     0.3880 h1         1 L1B       0.094700
     41 H162        -4.8930     4.1590    -0.0640 h1         1 L1B       0.094700
     42 H171        -4.8820     2.8700    -2.1740 hc         1 L1B       0.074700
     43 H172        -3.3330     2.1450    -1.7230 hc         1 L1B       0.074700
     44 H181        -2.2980     4.3900    -1.6690 h1         1 L1B       0.034200
     45 H182        -3.8470     5.1150    -2.1200 h1         1 L1B       0.034200
     46 H191        -1.9850     5.0120    -5.1150 h1         1 L1B       0.043367
     47 H192        -1.3500     5.3150    -3.4920 h1         1 L1B       0.043367
     48 H193        -2.8960     6.0210    -3.9820 h1         1 L1B       0.043367
     49 H7          -2.2720    -1.9650     2.1830 ha         1 L1B       0.173000
@<TRIPOS>BOND
     1     1     2 1
     2     1     6 1
     3     1     7 2
     4     2     3 2
     5     3     4 1
     6     3     8 1
     7     4     5 2
     8     5     6 1
     9     5     9 1
    10     6    16 2
    11     7    26 1
    12     7    27 1
    13     8    28 1
    14     8    29 1
    15     9    10 1
    16     9    30 1
    17     9    31 1
    18    10    32 1
    19    10    33 1
    20    10    34 1
    21    11    12 ar
    22    11    16 ar
    23    11    49 1
    24    12    13 ar
    25    12    35 1
    26    13    14 ar
    27    13    17 2
    28    14    15 ar
    29    14    20 1
    30    15    16 ar
    31    15    36 1
    32    17    18 1
    33    17    37 1
    34    18    19 2
    35    18    38 1
    36    19    20 1
    37    19    39 1
    38    20    21 1
    39    21    22 1
    40    21    40 1
    41    21    41 1
    42    22    23 1
    43    22    42 1
    44    22    43 1
    45    23    24 1
    46    23    44 1
    47    23    45 1
    48    24    25 1
    49    25    46 1
    50    25    47 1
    51    25    48 1
@<TRIPOS>SUBSTRUCTURE
     1 L1B         1 TEMP              0 ****  ****    0 ROOT
