@<TRIPOS>MOLECULE
molecule
   62    66     1     0     0
SMALL
bcc


@<TRIPOS>ATOM
      1 F2           0.0000     0.0000     0.0000 f          1 L1C      -0.128900
      2 C14          1.3510     0.0000     0.0000 ca         1 L1C       0.166900
      3 C15          2.0430     0.0000     1.2000 ca         1 L1C      -0.207000
      4 C16          3.4260    -0.0000     1.1990 ca         1 L1C       0.160900
      5 F1           4.1030    -0.0010     2.3680 f          1 L1C      -0.131900
      6 C17          4.1180    -0.0010    -0.0010 ca         1 L1C      -0.174300
      7 C18          3.4260     0.0010    -1.1980 ca         1 L1C      -0.063000
      8 C13          2.0440    -0.0060    -1.1980 ca         1 L1C      -0.180000
      9 C8           5.6250    -0.0000    -0.0020 c3         1 L1C       0.196100
     10 O3           6.1280    -0.0170    -1.3400 oh         1 L1C      -0.573800
     11 C11          6.1710    -1.2000     0.8010 c3         1 L1C       0.071000
     12 N2           7.3400    -0.7230     1.5530 n          1 L1C      -0.485800
     13 C12          8.0890    -1.4660     2.3940 c          1 L1C       0.813100
     14 O2           9.0380    -0.9650     2.9660 o          1 L1C      -0.638100
     15 N3           7.7860    -2.7630     2.6000 ns         1 L1C      -0.485100
     16 C2           8.6170    -3.5570     3.3970 ca         1 L1C       0.074600
     17 C7           9.2540    -3.0080     4.5020 ca         1 L1C      -0.137000
     18 C6          10.0740    -3.7960     5.2870 ca         1 L1C      -0.106000
     19 C5          10.2600    -5.1310     4.9740 ca         1 L1C       0.011400
     20 Cl1         11.2900    -6.1170     5.9640 cl         1 L1C      -0.114400
     21 C4           9.6260    -5.6810     3.8750 ca         1 L1C      -0.106000
     22 C3           8.8010    -4.8990     3.0880 ca         1 L1C      -0.137000
     23 C10          7.5590     0.7000     1.2380 c3         1 L1C       0.060700
     24 C9           6.1750     1.2240     0.7750 c3         1 L1C      -0.073400
     25 C1           8.5680     0.8420     0.1270 c          1 L1C       0.642100
     26 O1           8.8160    -0.1040    -0.5900 o          1 L1C      -0.506100
     27 N1           9.1930     2.0190    -0.0700 ns         1 L1C      -0.550400
     28 C26         10.0450     2.1820    -1.1610 ca         1 L1C       0.570200
     29 C27         10.6030     3.4300    -1.4170 ca         1 L1C      -0.294300
     30 C28         11.4480     3.5810    -2.5020 ca         1 L1C      -0.035000
     31 C29         11.7080     2.4700    -3.3010 ca         1 L1C      -0.146700
     32 C30         11.1160     1.2560    -2.9840 ca         1 L1C       0.463200
     33 N6          10.3190     1.1470    -1.9380 nb         1 L1C      -0.674000
     34 N4          12.5570     2.5750    -4.4100 n          1 L1C      -0.219200
     35 C24         12.0550     2.3950    -5.6600 cc         1 L1C       0.009600
     36 C23         12.8560     2.4940    -6.7470 cd         1 L1C      -0.247000
     37 C19         14.2180     2.7850    -6.5880 cd         1 L1C      -0.048000
     38 C21         14.7200     2.9650    -5.3320 cc         1 L1C      -0.259200
     39 C20         13.8600     2.8610    -4.2270 c          1 L1C       0.681700
     40 O4          14.2950     3.0250    -3.0980 o          1 L1C      -0.643500
     41 H15          1.5020     0.0410     2.1370 ha         1 L1C       0.165000
     42 H13          1.5030    -0.0040    -2.1360 ha         1 L1C       0.155000
     43 H18          3.9680    -0.0010    -2.1360 ha         1 L1C       0.158000
     44 H3           5.9580    -0.8590    -1.7290 ho         1 L1C       0.414000
     45 H111         6.4680    -1.9910     0.1230 h1         1 L1C       0.055200
     46 H112         5.4140    -1.5580     1.4870 h1         1 L1C       0.055200
     47 H91C         6.2850     2.0800     0.1200 hc         1 L1C       0.080700
     48 H92C         5.5450     1.4550     1.6260 hc         1 L1C       0.080700
     49 H10          7.8850     1.2340     2.1220 h1         1 L1C       0.087700
     50 HA           6.9480    -3.1480     2.2110 hn         1 L1C       0.321500
     51 H7           9.1090    -1.9630     4.7470 ha         1 L1C       0.154500
     52 HB           8.3050    -5.3300     2.2270 ha         1 L1C       0.154500
     53 H6          10.5720    -3.3680     6.1490 ha         1 L1C       0.145500
     54 H4           9.7710    -6.7270     3.6330 ha         1 L1C       0.145500
     55 H1           9.0150     2.7890     0.5450 hn         1 L1C       0.329500
     56 H27         10.3790     4.2730    -0.7740 ha         1 L1C       0.140000
     57 H28         11.8970     4.5420    -2.7260 ha         1 L1C       0.155000
     58 H30         11.3150     0.3860    -3.5990 h4         1 L1C       0.035100
     59 H24         11.0030     2.1700    -5.7880 h4         1 L1C       0.158000
     60 H23         12.4440     2.3480    -7.7380 ha         1 L1C       0.147000
     61 H19         14.8660     2.8630    -7.4530 ha         1 L1C       0.137000
     62 H21         15.7690     3.1930    -5.1890 ha         1 L1C       0.165000
@<TRIPOS>BOND
     1     1     2 1
     2     2     3 ar
     3     2     8 ar
     4     3     4 ar
     5     4     5 1
     6     4     6 ar
     7     6     7 ar
     8     6     9 1
     9     7     8 ar
    10     9    10 1
    11     9    11 1
    12     9    24 1
    13    11    12 1
    14    12    13 1
    15    12    23 1
    16    13    14 2
    17    13    15 1
    18    15    16 1
    19    16    17 ar
    20    16    22 ar
    21    17    18 ar
    22    18    19 ar
    23    19    20 1
    24    19    21 ar
    25    21    22 ar
    26    23    24 1
    27    23    25 1
    28    25    26 2
    29    25    27 1
    30    27    28 1
    31    28    29 ar
    32    28    33 ar
    33    29    30 ar
    34    30    31 ar
    35    31    32 ar
    36    31    34 1
    37    32    33 ar
    38    34    35 1
    39    34    39 1
    40    35    36 2
    41    36    37 1
    42    37    38 2
    43    38    39 1
    44    39    40 2
    45     3    41 1
    46     8    42 1
    47     7    43 1
    48    10    44 1
    49    11    45 1
    50    11    46 1
    51    24    47 1
    52    24    48 1
    53    23    49 1
    54    15    50 1
    55    17    51 1
    56    22    52 1
    57    18    53 1
    58    21    54 1
    59    27    55 1
    60    29    56 1
    61    30    57 1
    62    32    58 1
    63    35    59 1
    64    36    60 1
    65    37    61 1
    66    38    62 1
@<TRIPOS>SUBSTRUCTURE
     1 L1C         1 TEMP              0 ****  ****    0 ROOT
