@<TRIPOS>MOLECULE
L1D
   63    67     1     0     0
SMALL
bcc


@<TRIPOS>ATOM
      1 C14          0.0000     0.0000     0.0000 ca         1 L1D      -0.093000
      2 C15          1.3830     0.0000     0.0000 ca         1 L1D      -0.096500
      3 C16          2.0730     0.0000     1.1980 ca         1 L1D      -0.092000
      4 C17          1.3810     0.0010     2.3940 ca         1 L1D      -0.133300
      5 C18         -0.0010     0.0030     2.3940 ca         1 L1D      -0.092000
      6 C13         -0.6920    -0.0000     1.1970 ca         1 L1D      -0.096500
      7 C8           2.1340     0.0010     3.7000 c3         1 L1D       0.225100
      8 O3           1.2320     0.1180     4.8020 oh         1 L1D      -0.566800
      9 C11          3.1800     1.1360     3.7280 c3         1 L1D       0.005000
     10 N2           4.3850     0.6040     4.3810 n          1 L1D      -0.148800
     11 C12          5.5320     1.2800     4.5820 c          1 L1D       0.602100
     12 O2           6.4690     0.7370     5.1370 o          1 L1D      -0.691100
     13 N3           5.6440     2.5580     4.1690 ns         1 L1D      -0.051100
     14 C2           6.8700     3.2240     4.2760 ca         1 L1D      -0.070400
     15 C7           8.0580     2.5290     4.0970 ca         1 L1D      -0.110000
     16 C6           9.2670     3.1890     4.2040 ca         1 L1D      -0.079000
     17 C5           9.2940     4.5430     4.4900 ca         1 L1D      -0.048600
     18 Cl1         10.8140     5.3710     4.6220 cl         1 L1D      -0.032400
     19 C4           8.1110     5.2390     4.6690 ca         1 L1D      -0.079000
     20 C3           6.9000     4.5840     4.5580 ca         1 L1D      -0.110000
     21 C10          4.1280    -0.7920     4.7820 c3         1 L1D      -0.026300
     22 C9           3.0010    -1.2790     3.8340 c3         1 L1D      -0.023400
     23 C1           3.6640    -0.8500     6.2140 c          1 L1D       0.564100
     24 O1           3.2310     0.1480     6.7520 o          1 L1D      -0.617100
     25 N1           3.7290    -2.0090     6.8980 ns         1 L1D      -0.012100
     26 C26          3.4100    -2.0380     8.2620 ca         1 L1D      -0.090400
     27 C27          2.9810    -3.2220     8.8510 ca         1 L1D       0.062900
     28 C28          2.6670    -3.2490    10.1960 ca         1 L1D      -0.108000
     29 C29          2.7810    -2.0940    10.9590 ca         1 L1D      -0.139400
     30 C30          3.2100    -0.9120    10.3700 ca         1 L1D      -0.041000
     31 C31          3.5300    -0.8850     9.0270 ca         1 L1D      -0.092000
     32 N4           2.4620    -2.1200    12.3230 n          1 L1D       0.263800
     33 C24          1.2370    -2.5560    12.7180 cc         1 L1D      -0.147400
     34 C23          0.9070    -2.5900    14.0310 cd         1 L1D      -0.209000
     35 C19          1.8340    -2.1750    14.9970 cd         1 L1D      -0.022000
     36 C21          3.0640    -1.7390    14.5970 cc         1 L1D      -0.237200
     37 C20          3.3760    -1.7200    13.2280 c          1 L1D       0.572700
     38 O4           4.4750    -1.3370    12.8570 o          1 L1D      -0.694500
     39 F1           2.8690    -4.3450     8.1090 f          1 L1D      -0.127900
     40 H14         -0.5410    -0.0010    -0.9380 ha         1 L1D       0.105000
     41 H15          1.9250    -0.0000    -0.9380 ha         1 L1D       0.106000
     42 H13         -1.7750     0.0000     1.1960 ha         1 L1D       0.106000
     43 H16          3.1560    -0.0010     1.1990 ha         1 L1D       0.114000
     44 H18         -0.5430     0.0030     3.3320 ha         1 L1D       0.114000
     45 H3           0.8530     0.9810     4.8070 ho         1 L1D       0.404000
     46 H111         2.7960     1.9760     4.2930 h1         1 L1D       0.028200
     47 H112         3.4160     1.4420     2.7160 h1         1 L1D       0.028200
     48 H91C         2.4350    -2.0830     4.2880 hc         1 L1D       0.042700
     49 H92C         3.4050    -1.5730     2.8730 hc         1 L1D       0.042700
     50 H10          5.0200    -1.3920     4.6440 h1         1 L1D       0.059700
     51 HA           4.8490     3.0320     3.7880 hn         1 L1D       0.166500
     52 H7           8.0370     1.4690     3.8740 ha         1 L1D       0.124000
     53 HB           5.9740     5.1290     4.6980 ha         1 L1D       0.124000
     54 H6          10.1940     2.6470     4.0650 ha         1 L1D       0.114000
     55 H4           8.1350     6.2990     4.8900 ha         1 L1D       0.114000
     56 H1           3.9160    -2.8640     6.4120 hn         1 L1D       0.175500
     57 H31          3.8640     0.0370     8.5680 ha         1 L1D       0.166000
     58 H28          2.3320    -4.1710    10.6560 ha         1 L1D       0.124000
     59 H30          3.3010    -0.0120    10.9660 ha         1 L1D       0.128000
     60 H24          0.5170    -2.8780    11.9760 h4         1 L1D       0.131000
     61 H23         -0.0730    -2.9390    14.3340 ha         1 L1D       0.121000
     62 H19          1.5770    -2.1980    16.0490 ha         1 L1D       0.105000
     63 H21          3.7940    -1.4160    15.3290 ha         1 L1D       0.137000
@<TRIPOS>BOND
     1     1     2 ar  
     2     1     6 ar  
     3     1    40 1   
     4     2     3 ar  
     5     2    41 1   
     6     3     4 ar  
     7     3    43 1   
     8     4     5 ar  
     9     4     7 1   
    10     5     6 ar  
    11     5    44 1   
    12     6    42 1   
    13     7     8 1   
    14     7     9 1   
    15     7    22 1   
    16     8    45 1   
    17     9    10 1   
    18     9    46 1   
    19     9    47 1   
    20    10    11 1   
    21    10    21 1   
    22    11    12 2   
    23    11    13 1   
    24    13    14 1   
    25    13    51 1   
    26    14    15 ar  
    27    14    20 ar  
    28    15    16 ar  
    29    15    52 1   
    30    16    17 ar  
    31    16    54 1   
    32    17    18 1   
    33    17    19 ar  
    34    19    20 ar  
    35    19    55 1   
    36    20    53 1   
    37    21    22 1   
    38    21    23 1   
    39    21    50 1   
    40    22    48 1   
    41    22    49 1   
    42    23    24 2   
    43    23    25 1   
    44    25    26 1   
    45    25    56 1   
    46    26    27 ar  
    47    26    31 ar  
    48    27    28 ar  
    49    27    39 1   
    50    28    29 ar  
    51    28    58 1   
    52    29    30 ar  
    53    29    32 1   
    54    30    31 ar  
    55    30    59 1   
    56    31    57 1   
    57    32    33 1   
    58    32    37 1   
    59    33    34 2   
    60    33    60 1   
    61    34    35 1   
    62    34    61 1   
    63    35    36 2   
    64    35    62 1   
    65    36    37 1   
    66    36    63 1   
    67    37    38 2   
@<TRIPOS>SUBSTRUCTURE
     1 L1D         1 TEMP              0 ****  ****    0 ROOT
