@<TRIPOS>MOLECULE
L1E
   54    55     1     0     0
SMALL
bcc


@<TRIPOS>ATOM
      1 C5         -0.2430   -1.8580    0.0460 c1        1 L1E     -0.003000
      2 C7          2.9600    0.0500    0.4530 c2        1 L1E     -0.193000
      3 C8          7.2880   -0.7200    0.3790 c1        1 L1E      0.340000
      4 C10         5.8190    1.1960    0.2880 c1        1 L1E     -0.020000
      5 C15         1.3760    2.8900   -0.1350 c2        1 L1E     -0.120000
      6 C17        -1.0060    5.2710    2.4040 c1        1 L1E      0.240000
      7 C21         3.1980    2.1100   -3.1200 c1        1 L1E     -0.142000
      8 C22         2.0060    2.2780   -3.0190 c1        1 L1E     -0.089000
      9 C24        -0.1390    2.6360   -2.1060 c2        1 L1E      0.109000
     10 C26        -2.1660    2.4210   -3.3360 c2        1 L1E      0.044000
     11 C28        -4.2770    2.1880   -4.5020 c1        1 L1E     -0.139000
     12 C27        -3.5770    2.7700   -3.5670 c2        1 L1E     -0.077000
     13 C29        -5.0050    1.6100   -5.4120 c2        1 L1E     -0.088000
     14 CL32       -5.1390    2.1910   -6.9970 cl        1 L1E     -0.001000
     15 C30         4.5770    1.9180   -3.2590 c2        1 L1E     -0.074000
     16 C31         5.1810    1.6980   -4.4340 c2        1 L1E     -0.168000
     17 N25        -1.5100    2.9420   -2.3510 n2        1 L1E     -0.173000
     18 N23         0.6870    2.4600   -3.1140 n2        1 L1E     -0.109000
     19 C16         0.1730    2.6140   -0.6550 c2        1 L1E     -0.125000
     20 C18        -0.1270    4.5900    1.6930 c2        1 L1E     -0.457000
     21 C19         0.9200    3.7120    2.1650 c2        1 L1E     -0.016000
     22 C14         1.6280    2.9090    1.3130 c2        1 L1E     -0.039000
     23 C12         3.3880    1.2680    0.8870 c2        1 L1E      0.062000
     24 N11         4.6550    1.7910    0.4350 n3        1 L1E     -0.198000
     25 C9          6.1050   -0.1820    0.6260 c2        1 L1E     -0.557000
     26 C3          1.7080   -0.6120    0.8120 c2        1 L1E      0.114000
     27 N4          0.9210   -1.1620   -0.2000 n3        1 L1E     -0.203000
     28 N6         -0.7130   -2.0820    1.3050 n2        1 L1E     -0.182000
     29 C1         -0.0150   -1.5940    2.3320 c2        1 L1E      0.175000
     30 C2          1.2480   -0.8100    2.0960 c2        1 L1E     -0.312000
     31 N35         1.7490   -0.4070    3.3930 n4        1 L1E     -0.049000
     32 C34         0.6940   -1.0510    4.3840 c1        1 L1E     -0.053000
     33 N33        -0.2440   -1.6770    3.7360 n2        1 L1E     -0.244000
     34 H5          1.2110   -1.0450   -1.1470 hn        1 L1E      0.259000
     35 H8          3.5760   -0.5080   -0.2800 ha        1 L1E      0.167000
     36 H10         4.6340    2.7590    0.1720 hn        1 L1E      0.261000
     37 H17        -0.6790    2.3650    0.0060 ha        1 L1E      0.167000
     38 H20         2.2580    4.0950    3.8080 hc        1 L1E      0.091667
     39 H20A        1.0890    2.7310    4.0740 hc        1 L1E      0.091667
     40 H20B        0.5190    4.4450    4.1620 hc        1 L1E      0.091667
     41 H21         2.2510    3.1350   -0.7650 ha        1 L1E      0.145000
     42 H22         5.1630    1.9610   -2.3200 ha        1 L1E      0.137000
     43 H28        -4.0320    3.5410   -2.9170 ha        1 L1E      0.169000
     44 H27        -1.7440    1.6850   -4.0570 h4        1 L1E      0.137000
     45 H30        -5.5950    0.6980   -5.2290 h4        1 L1E      0.177000
     46 H31         6.2670    1.5540   -4.5030 ha        1 L1E      0.124500
     47 HN25        4.6360    1.6510   -5.3860 ha        1 L1E      0.124500
     48 H18        -0.2160    4.7130    0.5860 ha        1 L1E      0.208000
     49 HN13        3.2330    2.5340    2.4750 hn        1 L1E      0.194000
     50 H9          5.3430   -0.8210    1.1230 ha        1 L1E      0.178000
     51 H34         1.7340    0.6030    3.5170 hn        1 L1E      0.230000
     52 HN35        2.6760   -0.7710    3.5820 hn        1 L1E      0.230000
     53 N13         2.6360    2.0410    1.8300 n3        1 L1E     -0.249000
     54 C20         1.2090    3.7490    3.6230 c3        1 L1E     -0.189000
@<TRIPOS>BOND
     1    1   27 1   
     2    1   28 1   
     3    2   23 1   
     4    2   26 1   
     5    2   35 1   
     6    3   25 1   
     7    4   24 1   
     8    4   25 1   
     9    5   19 1   
    10    5   22 1   
    11    5   41 1   
    12    6   20 1   
    13    7    8 1   
    14    7   15 1   
    15    8   18 1   
    16    9   17 1   
    17    9   18 1   
    18    9   19 1   
    19   10   12 1   
    20   10   17 1   
    21   10   44 1   
    22   11   12 1   
    23   11   13 1   
    24   12   43 1   
    25   13   14 1   
    26   13   45 1   
    27   15   16 1   
    28   15   42 1   
    29   16   46 1   
    30   16   47 1   
    31   19   37 1   
    32   20   21 1   
    33   20   48 1   
    34   21   22 1   
    35   21   54 1   
    36   22   53 1   
    37   23   24 1   
    38   23   53 1   
    39   24   36 1   
    40   25   50 1   
    41   26   27 1   
    42   26   30 1   
    43   27   34 1   
    44   28   29 1   
    45   29   30 1   
    46   29   33 1   
    47   30   31 1   
    48   31   32 1   
    49   31   51 1   
    50   31   52 1   
    51   32   33 1   
    52   38   54 1   
    53   39   54 1   
    54   40   54 1   
    55   49   53 1   
@<TRIPOS>SUBSTRUCTURE
     1 L1E         1 TEMP              0 ****  ****    0 ROOT
