@<TRIPOS>MOLECULE
molecule
   83    89     1     0     0
SMALL
bcc


@<TRIPOS>ATOM
      1 C1           0.0000     0.0000     0.0000 cc         1 L1G       0.449500
      2 C2           1.4630     0.0000     0.0000 ca         1 L1G      -0.496500
      3 C3          -0.8790     0.0020    -1.1940 ca         1 L1G      -0.084900
      4 N1          -0.3910    -0.0080     1.2520 nd         1 L1G      -0.493100
      5 C4           1.8610     0.0000     1.3500 ca         1 L1G       0.514800
      6 C5           2.4550     0.0150    -0.9930 ca         1 L1G       0.787200
      7 C6          -1.9690     0.8690    -1.2580 ca         1 L1G      -0.175000
      8 C7          -0.6140    -0.8620    -2.2570 ca         1 L1G      -0.105000
      9 N2           0.7220    -0.0080     2.0990 na         1 L1G      -0.027800
     10 N3           3.1630     0.0040     1.6320 nb         1 L1G      -0.780000
     11 N4           3.7290     0.0180    -0.6120 nb         1 L1G      -0.800000
     12 N5           2.1180     0.0200    -2.3330 nv         1 L1G      -1.073500
     13 C8          -2.7850     0.8680    -2.3730 ca         1 L1G       0.068100
     14 C9          -1.4310    -0.8610    -3.3680 ca         1 L1G      -0.128000
     15 C10          0.6720    -0.0160     3.5630 c3         1 L1G       0.090000
     16 C11          4.0590     0.0130     0.6670 ca         1 L1G       0.730900
     17 C12         -2.5200    -0.0020    -3.4300 ca         1 L1G       0.047600
     18 O1          -3.8500     1.7110    -2.4370 os         1 L1G      -0.317900
     19 C13         -0.0710     1.2280     4.0550 c3         1 L1G      -0.094400
     20 C14         -0.0610    -1.2710     4.0410 c3         1 L1G      -0.094400
     21 N6          -3.3470    -0.0030    -4.5590 ns         1 L1G      -0.471100
     22 C15         -3.8590     2.4580    -1.2190 c3         1 L1G       0.108700
     23 C16         -0.1230     1.2190     5.5830 c3         1 L1G      -0.077400
     24 C17         -0.1130    -1.2790     5.5700 c3         1 L1G      -0.077400
     25 C18         -3.3520    -1.0630    -5.3900 c          1 L1G       0.698300
     26 C19         -0.8570    -0.0350     6.0620 c3         1 L1G       0.142500
     27 C20         -4.1090    -1.0080    -6.6490 cc         1 L1G      -0.140300
     28 O2          -2.7290    -2.0680    -5.0980 o          1 L1G      -0.588100
     29 N7          -0.9060    -0.0430     7.5300 n3         1 L1G      -0.672600
     30 N8          -4.7330     0.1140    -7.1590 na         1 L1G      -0.066400
     31 C21         -4.3130    -2.0540    -7.4930 cd         1 L1G      -0.098200
     32 C22         -1.7230    -1.2000     7.9180 c3         1 L1G       0.132300
     33 C23         -1.6490     1.1570     7.9340 c3         1 L1G       0.132300
     34 C24         -5.3350    -0.2170    -8.3500 ca         1 L1G      -0.022200
     35 C25         -4.7500     1.4390    -6.5350 c3         1 L1G       0.026600
     36 C26         -5.0860    -1.5840    -8.5820 ca         1 L1G      -0.121800
     37 C27         -1.9210    -1.2040     9.4340 c3         1 L1G       0.135800
     38 C28         -1.8480     1.1530     9.4500 c3         1 L1G       0.135800
     39 C29         -6.0830     0.5080    -9.2740 ca         1 L1G      -0.149000
     40 C30         -5.5940    -2.1960    -9.7350 ca         1 L1G      -0.066000
     41 N9          -2.6640    -0.0040     9.8380 n3         1 L1G      -0.677600
     42 C31         -6.5720    -0.1160   -10.4000 ca         1 L1G      -0.095000
     43 C32         -6.3250    -1.4640   -10.6260 ca         1 L1G      -0.161000
     44 C33         -2.7150    -0.0120    11.3060 c3         1 L1G       0.125100
     45 H6          -2.1740     1.5440    -0.4360 ha         1 L1G       0.155000
     46 H7           0.2360    -1.5330    -2.2100 ha         1 L1G       0.146000
     47 H5N1         1.8260     0.8710    -2.7710 hn         1 L1G       0.445300
     48 H5N2         2.2280    -0.8110    -2.8790 hn         1 L1G       0.445300
     49 H9          -1.2250    -1.5340    -4.1910 ha         1 L1G       0.189000
     50 H10          1.6790    -0.0150     3.9630 h1         1 L1G       0.091700
     51 H11          5.1090     0.0160     0.9330 h5         1 L1G       0.061100
     52 H131         0.4520     2.1150     3.7180 hc         1 L1G       0.058200
     53 H132        -1.0790     1.2240     3.6600 hc         1 L1G       0.058200
     54 H141        -1.0700    -1.2700     3.6460 hc         1 L1G       0.058200
     55 H142         0.4680    -2.1510     3.6940 hc         1 L1G       0.058200
     56 HA          -3.9980     0.7440    -4.7010 hn         1 L1G       0.339500
     57 H151        -3.9550     1.7800    -0.3800 h1         1 L1G       0.047033
     58 H152        -2.9340     3.0150    -1.1300 h1         1 L1G       0.047033
     59 H153        -4.6950     3.1470    -1.2240 h1         1 L1G       0.047033
     60 H161         0.8860     1.2180     5.9780 hc         1 L1G       0.054450
     61 H162        -0.6510     2.0990     5.9300 hc         1 L1G       0.054450
     62 H171        -0.6350    -2.1670     5.9080 hc         1 L1G       0.054450
     63 H172         0.8960    -1.2750     5.9650 hc         1 L1G       0.054450
     64 H19         -1.8630    -0.0370     5.6620 h1         1 L1G       0.035700
     65 H21         -4.0240    -3.0820    -7.3140 ha         1 L1G       0.172000
     66 H221        -1.2190    -2.1120     7.6190 h1         1 L1G       0.046450
     67 H222        -2.6880    -1.1390     7.4290 h1         1 L1G       0.046450
     68 H231        -1.0900     2.0390     7.6470 h1         1 L1G       0.046450
     69 H232        -2.6160     1.1620     7.4450 h1         1 L1G       0.046450
     70 H251        -5.3550     1.4090    -5.6370 h1         1 L1G       0.056700
     71 H252        -5.1680     2.1590    -7.2280 h1         1 L1G       0.056700
     72 H253        -3.7380     1.7310    -6.2790 h1         1 L1G       0.056700
     73 H271        -0.9540    -1.2090     9.9230 h1         1 L1G       0.044700
     74 H272        -2.4800    -2.0860     9.7210 h1         1 L1G       0.044700
     75 H281        -0.8830     1.0920     9.9380 h1         1 L1G       0.044700
     76 H282        -2.3520     2.0640     9.7480 h1         1 L1G       0.044700
     77 H29         -6.2810     1.5600    -9.1060 ha         1 L1G       0.126000
     78 H30         -5.4070    -3.2460    -9.9210 ha         1 L1G       0.134000
     79 H31         -7.1550     0.4510   -11.1160 ha         1 L1G       0.132000
     80 H32         -6.7180    -1.9390   -11.5170 ha         1 L1G       0.131000
     81 H331        -3.2100     0.8860    11.6550 h1         1 L1G       0.035033
     82 H332        -1.7070    -0.0460    11.7020 h1         1 L1G       0.035033
     83 H333        -3.2650    -0.8820    11.6440 h1         1 L1G       0.035033
@<TRIPOS>BOND
     1     1     2 1
     2     1     3 1
     3     1     4 2
     4     2     5 ar
     5     2     6 ar
     6     3     7 ar
     7     3     8 ar
     8     4     9 1
     9     5     9 1
    10     5    10 ar
    11     6    11 ar
    12     6    12 1
    13     7    13 ar
    14     7    45 1
    15     8    14 ar
    16     8    46 1
    17     9    15 1
    18    10    16 ar
    19    11    16 ar
    20    12    47 1
    21    12    48 1
    22    13    17 ar
    23    13    18 1
    24    14    17 ar
    25    14    49 1
    26    15    19 1
    27    15    20 1
    28    15    50 1
    29    16    51 1
    30    17    21 1
    31    18    22 1
    32    19    23 1
    33    19    52 1
    34    19    53 1
    35    20    24 1
    36    20    54 1
    37    20    55 1
    38    21    25 1
    39    21    56 1
    40    22    57 1
    41    22    58 1
    42    22    59 1
    43    23    26 1
    44    23    60 1
    45    23    61 1
    46    24    26 1
    47    24    62 1
    48    24    63 1
    49    25    27 1
    50    25    28 2
    51    26    29 1
    52    26    64 1
    53    27    30 1
    54    27    31 2
    55    29    32 1
    56    29    33 1
    57    30    34 1
    58    30    35 1
    59    31    36 1
    60    31    65 1
    61    32    37 1
    62    32    66 1
    63    32    67 1
    64    33    38 1
    65    33    68 1
    66    33    69 1
    67    34    36 ar
    68    34    39 ar
    69    35    70 1
    70    35    71 1
    71    35    72 1
    72    36    40 ar
    73    37    41 1
    74    37    73 1
    75    37    74 1
    76    38    41 1
    77    38    75 1
    78    38    76 1
    79    39    42 ar
    80    39    77 1
    81    40    43 ar
    82    40    78 1
    83    41    44 1
    84    42    43 ar
    85    42    79 1
    86    43    80 1
    87    44    81 1
    88    44    82 1
    89    44    83 1
@<TRIPOS>SUBSTRUCTURE
     1 L1G         1 TEMP              0 ****  ****    0 ROOT
