@<TRIPOS>MOLECULE
molecule
   24    24     1     0     0
SMALL
bcc


@<TRIPOS>ATOM
      1 N1           0.0000     0.0000     0.0000 nz         1 L1O      -0.812600
      2 C2           1.4870     0.0000     0.0000 c3         1 L1O       0.100800
      3 C3           2.0750     0.0000     1.3980 c3         1 L1O       0.106400
      4 O4           1.8570    -1.3050     2.0030 os         1 L1O      -0.358900
      5 C5           2.7220    -1.6780     2.9990 ca         1 L1O       0.032100
      6 C6           2.3790    -1.6140     4.3590 ca         1 L1O       0.008900
      7 Cl7          0.7910    -1.1090     4.8480 cl         1 L1O      -0.137900
      8 C8           3.3090    -1.9850     5.3220 ca         1 L1O      -0.080500
      9 C9           4.5850    -2.3990     4.9550 ca         1 L1O      -0.065600
     10 C10          4.9240    -2.4400     3.6060 ca         1 L1O      -0.080500
     11 C11          4.0000    -2.0910     2.6320 ca         1 L1O       0.008900
     12 Cl12         4.4440    -2.1620     0.9560 cl         1 L1O      -0.137900
     13 C13          5.5880    -2.7710     6.0040 c          1 L1O       0.893200
     14 O14          5.0750    -3.0480     7.1750 o          1 L1O      -0.795800
     15 O15          6.7850    -2.7740     5.7900 o          1 L1O      -0.795800
     16 H1N1        -0.3340    -0.8750     0.3530 hn         1 L1O       0.455467
     17 H1N2        -0.3340     0.7430     0.5810 hn         1 L1O       0.455467
     18 H2C1         1.8360    -0.8810    -0.5250 hx         1 L1O       0.112200
     19 H2C2         1.8360     0.8810    -0.5250 hx         1 L1O       0.112200
     20 H3C1         1.5890     0.7620     1.9960 h1         1 L1O       0.079200
     21 H3C2         3.1370     0.2030     1.3460 h1         1 L1O       0.079200
     22 H8           3.0370    -1.9510     6.3710 ha         1 L1O       0.183500
     23 H10          5.9200    -2.7500     3.3140 ha         1 L1O       0.183500
     24 H13         -0.3340     0.1450    -0.9320 hn         1 L1O       0.455467
@<TRIPOS>BOND
     1     1     2 1
     2     2     3 1
     3     3     4 1
     4     4     5 1
     5     5     6 ar
     6     5    11 ar
     7     6     7 1
     8     6     8 ar
     9     8     9 ar
    10     9    10 ar
    11     9    13 1
    12    10    11 ar
    13    11    12 1
    14    13    14 1
    15    13    15 1
    16     1    16 1
    17     1    17 1
    18     2    18 1
    19     2    19 1
    20     3    20 1
    21     3    21 1
    22     8    22 1
    23    10    23 1
    24    24     1 1
@<TRIPOS>SUBSTRUCTURE
     1 L1O         1 TEMP              0 ****  ****    0 ROOT
