@<TRIPOS>MOLECULE
molecule
   46    47     1     0     0
SMALL
bcc


@<TRIPOS>ATOM
      1 C1           0.0000     0.0000     0.0000 c3         1 L1R      -0.110600
      2 C2           1.5200     0.0000     0.0000 c3         1 L1R       0.138100
      3 C3           2.0250     0.0000     1.4320 c3         1 L1R      -0.110600
      4 O4           2.0300    -1.2420    -0.5520 os         1 L1R      -0.330900
      5 C5           1.4070    -1.8120    -1.6340 ca         1 L1R       0.155100
      6 C6           1.6720    -3.1760    -1.6030 ca         1 L1R      -0.163000
      7 C7           1.1510    -4.0120    -2.5690 ca         1 L1R      -0.085000
      8 C8           0.3870    -3.4940    -3.5960 ca         1 L1R      -0.184000
      9 C9           0.1200    -2.1320    -3.6560 ca         1 L1R       0.071600
     10 N10         -0.6660    -1.6200    -4.7150 ns         1 L1R      -0.469100
     11 C11         -0.4320    -0.4860    -5.3960 c          1 L1R       0.676700
     12 O12          0.5430     0.2090    -5.2140 o          1 L1R      -0.554100
     13 C13         -1.4230    -0.1120    -6.4510 ca         1 L1R      -0.118600
     14 C14         -0.9020     0.4730    -7.5980 ca         1 L1R      -0.066500
     15 C15         -1.7430     0.8470    -8.6300 ca         1 L1R       0.011900
     16 Cl1         -1.0780     1.5780   -10.0590 cl         1 L1R      -0.076900
     17 C17         -3.1290     0.6350    -8.5070 ca         1 L1R       0.099100
     18 O18         -4.0240     0.9570    -9.4870 os         1 L1R      -0.355900
     19 C19         -4.6110    -0.1420   -10.2120 c3         1 L1R       0.108400
     20 C20         -5.8920     0.3330   -10.8700 c3         1 L1R       0.105800
     21 N21         -5.6300     1.2400   -12.0200 nz         1 L1R      -0.814600
     22 C22         -3.6460     0.0380    -7.3620 ca         1 L1R       0.011900
     23 Cl2         -5.3500    -0.2460    -7.2270 cl         1 L1R      -0.076900
     24 C24         -2.7920    -0.3400    -6.3320 ca         1 L1R      -0.066500
     25 C25          0.6430    -1.2950    -2.6760 ca         1 L1R      -0.182000
     26 H1C1        -0.3610     0.5340    -0.8710 hc         1 L1R       0.048533
     27 H1C2        -0.3610    -1.0210    -0.0270 hc         1 L1R       0.048533
     28 H1C3        -0.3610     0.4870     0.8980 hc         1 L1R       0.048533
     29 H2           1.9070     0.8520    -0.5450 h1         1 L1R       0.057700
     30 H3C1         1.7340     0.9240     1.9170 hc         1 L1R       0.048533
     31 H3C2         1.5960    -0.8390     1.9660 hc         1 L1R       0.048533
     32 H3C3         3.1050    -0.0850     1.4340 hc         1 L1R       0.048533
     33 H6           2.2710    -3.5900    -0.8010 ha         1 L1R       0.155000
     34 H7           1.3590    -5.0750    -2.5340 ha         1 L1R       0.141000
     35 H25          0.4390    -0.2310    -2.7160 ha         1 L1R       0.150000
     36 H8          -0.0190    -4.1560    -4.3510 ha         1 L1R       0.128000
     37 H10         -1.4720    -2.1510    -4.9820 hn         1 L1R       0.315500
     38 H14          0.1650     0.6350    -7.6860 ha         1 L1R       0.179000
     39 H24         -3.1910    -0.8050    -5.4380 ha         1 L1R       0.179000
     40 H191        -3.9190    -0.4870   -10.9710 h1         1 L1R       0.082200
     41 H192        -4.8320    -0.9520    -9.5280 h1         1 L1R       0.082200
     42 H201        -6.4890     0.8600   -10.1360 hx         1 L1R       0.121200
     43 H202        -6.4460    -0.5290   -11.2210 hx         1 L1R       0.121200
     44 H211        -5.2490     2.1020   -11.6850 hn         1 L1R       0.461133
     45 H212        -6.4870     1.4190   -12.5050 hn         1 L1R       0.461133
     46 H213        -4.9780     0.8070   -12.6450 hn         1 L1R       0.461133
@<TRIPOS>BOND
     1     1     2 1
     2     2     3 1
     3     2     4 1
     4     4     5 1
     5     5     6 ar
     6     5    25 ar
     7     6     7 ar
     8     7     8 ar
     9     7    34 1
    10     8     9 ar
    11     9    10 1
    12     9    25 ar
    13    10    11 1
    14    11    12 2
    15    11    13 1
    16    13    14 ar
    17    13    24 ar
    18    14    15 ar
    19    15    16 1
    20    15    17 ar
    21    17    18 1
    22    17    22 ar
    23    18    19 1
    24    19    20 1
    25    20    21 1
    26    22    23 1
    27    22    24 ar
    28     1    26 1
    29     1    27 1
    30     1    28 1
    31     2    29 1
    32     3    30 1
    33     3    31 1
    34     3    32 1
    35     6    33 1
    36    25    35 1
    37     8    36 1
    38    10    37 1
    39    14    38 1
    40    24    39 1
    41    19    40 1
    42    19    41 1
    43    20    42 1
    44    20    43 1
    45    21    44 1
    46    21    45 1
    47    46    21 1
@<TRIPOS>SUBSTRUCTURE
     1 L1R         1 TEMP              0 ****  ****    0 ROOT
