@<TRIPOS>MOLECULE
molecule
   63    68     1     0     0
SMALL
bcc


@<TRIPOS>ATOM
      1 C1           0.0000     0.0000     0.0000 ca         1 L1X      -0.082500
      2 C2           0.0030    -0.0040     2.4050 ca         1 L1X      -0.082500
      3 C3          -4.5210     5.5480    -1.0860 ca         1 L1X      -0.176000
      4 C4          -5.1920     6.7420    -1.2680 ca         1 L1X      -0.094000
      5 C5           1.3810     0.0000     0.0000 ca         1 L1X      -0.162500
      6 C6           1.3850     0.0000     2.4000 ca         1 L1X      -0.162500
      7 C7          -5.4980     9.1860     1.0020 ca         1 L1X      -0.144000
      8 C8          -6.7420    11.6650     0.6530 ca         1 L1X      -0.130000
      9 C9          -5.9850     5.0020     0.7430 ca         1 L1X      -0.175000
     10 C10         -4.0750    10.4770     2.7340 cc         1 L1X       0.372800
     11 C11         -9.4880    11.2460    -0.8080 cc         1 L1X      -0.100300
     12 C12         -8.2560    10.2510    -2.3890 cd         1 L1X       0.367200
     13 C13         -5.0760    10.2930     1.7490 ca         1 L1X      -0.221900
     14 C14         -7.1530    10.5590    -0.0760 ca         1 L1X       0.035000
     15 C15         -8.2660    10.6860    -1.0490 cd         1 L1X      -0.261300
     16 C16         -5.7050    11.5400     1.5700 ca         1 L1X      -0.042200
     17 C17         -0.6930     0.0010     1.2030 ca         1 L1X      -0.006400
     18 C18         -4.9180     4.6740    -0.0820 ca         1 L1X       0.096600
     19 C19         -6.2620     7.0680    -0.4470 ca         1 L1X       0.032100
     20 C20         -6.5190     9.3190     0.1020 ca         1 L1X       0.105100
     21 C21          2.0750     0.0000     1.1990 ca         1 L1X       0.150900
     22 C22         -6.6600     6.1940     0.5570 ca         1 L1X       0.145900
     23 C23         -4.8540    -0.0190     1.2110 cd         1 L1X       0.047000
     24 C24         -4.1230    -1.1630     1.5280 cd         1 L1X      -0.260000
     25 C25         -4.1700     1.1500     0.8810 cc         1 L1X      -0.314400
     26 C26         -2.7660    -1.1280     1.5200 cc         1 L1X       0.087400
     27 C27         -2.7520     1.1370     0.8810 c          1 L1X       0.705700
     28 C28         -4.9060     2.3760     0.5390 c          1 L1X       0.698300
     29 C29         -1.9920    -2.3740     1.8670 c3         1 L1X      -0.067900
     30 N31         -4.0910    11.7200     3.1200 nd         1 L1X      -0.504100
     31 N32        -10.2060    11.1640    -1.9470 na         1 L1X      -0.045600
     32 N33         -9.4140    10.5390    -2.9190 nc         1 L1X      -0.516800
     33 N34         -5.0870    12.4180     2.4260 na         1 L1X       0.055900
     34 N35         -2.0940     0.0070     1.2060 n          1 L1X      -0.215200
     35 N36         -4.2400     3.4620     0.0970 ns         1 L1X      -0.470100
     36 O38         -6.1180     2.4120     0.6550 o          1 L1X      -0.609100
     37 O39         -6.9210     8.2440    -0.6260 os         1 L1X      -0.232200
     38 F40          3.4250     0.0050     1.1960 f          1 L1X      -0.131900
     39 F41         -7.7020     6.5130     1.3560 f          1 L1X      -0.124900
     40 H1          -0.5420     0.0020    -0.9380 ha         1 L1X       0.150000
     41 H2          -0.5360    -0.0040     3.3440 ha         1 L1X       0.150000
     42 H3          -3.6870     5.2920    -1.7280 ha         1 L1X       0.141000
     43 H4          -4.8820     7.4240    -2.0500 ha         1 L1X       0.149000
     44 H5           1.9230    -0.0000    -0.9380 ha         1 L1X       0.155500
     45 H6           1.9300    -0.0010     3.3370 ha         1 L1X       0.155500
     46 H7          -5.0130     8.2260     1.1330 ha         1 L1X       0.146000
     47 H8          -7.1600    12.6410     0.4370 ha         1 L1X       0.137000
     48 H9          -6.2950     4.3210     1.5260 ha         1 L1X       0.178000
     49 H10         -3.4060     9.7100     3.1040 h4         1 L1X       0.058800
     50 H11         -9.8200    11.6780     0.1280 h4         1 L1X       0.172000
     51 H12         -7.4300     9.7630    -2.8930 h4         1 L1X       0.056100
     52 H13         -5.9370    -0.0390     1.2170 ha         1 L1X       0.169000
     53 H14         -4.6390    -2.0800     1.7870 ha         1 L1X       0.158000
     54 H15         -2.6620    -3.2250     1.8740 hc         1 L1X       0.064700
     55 H16         -1.5430    -2.2590     2.8460 hc         1 L1X       0.064700
     56 H17         -1.2150    -2.5330     1.1290 hc         1 L1X       0.064700
     57 H18         -5.2630    14.3500     1.6410 h1         1 L1X       0.050367
     58 H19         -4.7650    14.2740     3.3370 h1         1 L1X       0.050367
     59 H20         -6.4450    13.9410     2.8920 h1         1 L1X       0.050367
     60 H21        -11.1420    11.4930    -2.0750 hn         1 L1X       0.328700
     61 H22         -3.2710     3.3900    -0.1440 hn         1 L1X       0.366500
     62 O37         -2.1310     2.1470     0.6000 o          1 L1X      -0.661500
     63 C30         -5.4110    13.8380     2.5850 c3         1 L1X       0.075600
@<TRIPOS>BOND
     1    63    33 1
     2    30    33 1
     3    30    10 2
     4    33    16 1
     5    10    13 1
     6    16     8 ar
     7    16    13 ar
     8    38    21 1
     9     8    14 ar
    10    13     7 ar
    11    21     6 ar
    12    21     5 ar
    13     6     2 ar
    14    14    15 1
    15    14    20 ar
    16    11    15 2
    17    11    31 1
    18     7    20 ar
    19    15    12 1
    20    20    37 1
    21     5     1 ar
    22    31    32 1
    23     2    17 ar
    24     4     3 ar
    25     4    19 ar
    26     3    18 ar
    27    37    19 1
    28    12    32 2
    29    62    27 2
    30     1    17 ar
    31    17    34 1
    32    19    22 ar
    33    18    35 1
    34    18     9 ar
    35    35    28 1
    36    27    34 1
    37    27    25 1
    38    34    26 1
    39    22     9 ar
    40    22    39 1
    41    25    28 1
    42    25    23 2
    43    28    36 2
    44    26    29 1
    45    26    24 2
    46    23    24 1
    47     1    40 1
    48     2    41 1
    49     3    42 1
    50     4    43 1
    51     5    44 1
    52     6    45 1
    53     7    46 1
    54     8    47 1
    55     9    48 1
    56    10    49 1
    57    11    50 1
    58    12    51 1
    59    23    52 1
    60    24    53 1
    61    29    54 1
    62    29    55 1
    63    29    56 1
    64    63    57 1
    65    63    58 1
    66    63    59 1
    67    31    60 1
    68    35    61 1
@<TRIPOS>SUBSTRUCTURE
     1 L1X         1 TEMP              0 ****  ****    0 ROOT
