@<TRIPOS>MOLECULE
L1X
   63    68     1     0     0
SMALL
bcc


@<TRIPOS>ATOM
      1 C1           0.0000     0.0000     0.0000 ca         1 L1X      -0.041500
      2 C2           0.0030    -0.0040     2.4050 ca         1 L1X      -0.041500
      3 C3          -4.5210     5.5480    -1.0860 ca         1 L1X      -0.142000
      4 C4          -5.1920     6.7420    -1.2680 ca         1 L1X      -0.073000
      5 C5           1.3810     0.0000     0.0000 ca         1 L1X      -0.127500
      6 C6           1.3850     0.0000     2.4000 ca         1 L1X      -0.127500
      7 C7          -5.4980     9.1860     1.0020 ca         1 L1X      -0.125000
      8 C8          -6.7420    11.6650     0.6530 ca         1 L1X      -0.096000
      9 C9          -5.9850     5.0020     0.7430 ca         1 L1X      -0.141000
     10 C10         -4.0750    10.4770     2.7340 cc         1 L1X       0.426800
     11 C11         -9.4880    11.2460    -0.8080 cc         1 L1X      -0.253300
     12 C12         -8.2560    10.2510    -2.3890 cd         1 L1X       0.425200
     13 C13         -5.0760    10.2930     1.7490 ca         1 L1X      -0.228900
     14 C14         -7.1530    10.5590    -0.0760 ca         1 L1X       0.043000
     15 C15         -8.2660    10.6860    -1.0490 cd         1 L1X      -0.266300
     16 C16         -5.7050    11.5400     1.5700 ca         1 L1X      -0.193200
     17 C17         -0.6930     0.0010     1.2030 ca         1 L1X      -0.163400
     18 C18         -4.9180     4.6740    -0.0820 ca         1 L1X      -0.046400
     19 C19         -6.2620     7.0680    -0.4470 ca         1 L1X       0.045100
     20 C20         -6.5190     9.3190     0.1020 ca         1 L1X       0.111100
     21 C21          2.0750     0.0000     1.1990 ca         1 L1X       0.131900
     22 C22         -6.6600     6.1940     0.5570 ca         1 L1X       0.115900
     23 C23         -4.8540    -0.0190     1.2110 cc         1 L1X       0.080000
     24 C24         -4.1230    -1.1630     1.5280 cc         1 L1X      -0.226000
     25 C25         -4.1700     1.1500     0.8810 cd         1 L1X      -0.332400
     26 C26         -2.7660    -1.1280     1.5200 cd         1 L1X      -0.103600
     27 C27         -2.7520     1.1370     0.8810 c          1 L1X       0.601700
     28 C28         -4.9060     2.3760     0.5390 c          1 L1X       0.616300
     29 C29         -1.9920    -2.3740     1.8670 c3         1 L1X       0.045100
     30 N31         -4.0910    11.7200     3.1200 nd         1 L1X      -0.628100
     31 N32        -10.2060    11.1640    -1.9470 na         1 L1X       0.450400
     32 N33         -9.4140    10.5390    -2.9190 nc         1 L1X      -0.668800
     33 N34         -5.0870    12.4180     2.4260 na         1 L1X       0.453900
     34 N35         -2.0940     0.0070     1.2060 n          1 L1X       0.277800
     35 N36         -4.2400     3.4620     0.0970 ns         1 L1X      -0.055100
     36 O38         -6.1180     2.4120     0.6550 o          1 L1X      -0.657100
     37 O39         -6.9210     8.2440    -0.6260 os         1 L1X      -0.203200
     38 F40          3.4250     0.0050     1.1960 f          1 L1X      -0.120900
     39 F41         -7.7020     6.5130     1.3560 f          1 L1X      -0.119900
     40 H1          -0.5420     0.0020    -0.9380 ha         1 L1X       0.117500
     41 H2          -0.5360    -0.0040     3.3440 ha         1 L1X       0.117500
     42 H3          -3.6870     5.2920    -1.7280 ha         1 L1X       0.114000
     43 H4          -4.8820     7.4240    -2.0500 ha         1 L1X       0.118000
     44 H5           1.9230    -0.0000    -0.9380 ha         1 L1X       0.126500
     45 H6           1.9300    -0.0010     3.3370 ha         1 L1X       0.126500
     46 H7          -5.0130     8.2260     1.1330 ha         1 L1X       0.125000
     47 H8          -7.1600    12.6410     0.4370 ha         1 L1X       0.110000
     48 H9          -6.2950     4.3210     1.5260 ha         1 L1X       0.157000
     49 H10         -3.4060     9.7100     3.1040 h4         1 L1X       0.011800
     50 H11         -9.8200    11.6780     0.1280 h4         1 L1X       0.146000
     51 H12         -7.4300     9.7630    -2.8930 h4         1 L1X       0.010100
     52 H13         -5.9370    -0.0390     1.2170 ha         1 L1X       0.132000
     53 H14         -4.6390    -2.0800     1.7870 ha         1 L1X       0.133000
     54 H15         -2.6620    -3.2250     1.8740 hc         1 L1X       0.025033
     55 H16         -1.5430    -2.2590     2.8460 hc         1 L1X       0.025033
     56 H17         -1.2150    -2.5330     1.1290 hc         1 L1X       0.025033
     57 H18         -5.2630    14.3500     1.6410 h1         1 L1X       0.015700
     58 H19         -4.7650    14.2740     3.3370 h1         1 L1X       0.015700
     59 H20         -6.4450    13.9410     2.8920 h1         1 L1X       0.015700
     60 H21        -11.1420    11.4930    -2.0750 hn         1 L1X       0.145700
     61 H22         -3.2710     3.3900    -0.1440 hn         1 L1X       0.229500
     62 O37         -2.1310     2.1470     0.6000 o          1 L1X      -0.717500
     63 C30         -5.4110    13.8380     2.5850 c3         1 L1X       0.039600
@<TRIPOS>BOND
     1     1     5 ar  
     2     1    17 ar  
     3     1    40 1   
     4     2     6 ar  
     5     2    17 ar  
     6     2    41 1   
     7     3     4 ar  
     8     3    18 ar  
     9     3    42 1   
    10     4    19 ar  
    11     4    43 1   
    12     5    21 ar  
    13     5    44 1   
    14     6    21 ar  
    15     6    45 1   
    16     7    13 ar  
    17     7    20 ar  
    18     7    46 1   
    19     8    14 ar  
    20     8    16 ar  
    21     8    47 1   
    22     9    18 ar  
    23     9    22 ar  
    24     9    48 1   
    25    10    13 1   
    26    10    30 2   
    27    10    49 1   
    28    11    15 2   
    29    11    31 1   
    30    11    50 1   
    31    12    15 1   
    32    12    32 2   
    33    12    51 1   
    34    13    16 ar  
    35    14    15 1   
    36    14    20 ar  
    37    16    33 1   
    38    17    34 1   
    39    18    35 1   
    40    19    22 ar  
    41    19    37 1   
    42    20    37 1   
    43    21    38 1   
    44    22    39 1   
    45    23    24 1   
    46    23    25 2   
    47    23    52 1   
    48    24    26 2   
    49    24    53 1   
    50    25    27 1   
    51    25    28 1   
    52    26    29 1   
    53    26    34 1   
    54    27    34 1   
    55    27    62 2   
    56    28    35 1   
    57    28    36 2   
    58    29    54 1   
    59    29    55 1   
    60    29    56 1   
    61    30    33 1   
    62    31    32 1   
    63    31    60 1   
    64    33    63 1   
    65    35    61 1   
    66    57    63 1   
    67    58    63 1   
    68    59    63 1   
@<TRIPOS>SUBSTRUCTURE
     1 L1X         1 TEMP              0 ****  ****    0 ROOT
