@<TRIPOS>MOLECULE
L20
   54    58     1     0     0
SMALL
bcc


@<TRIPOS>ATOM
      1 C1           0.0000     0.0000     0.0000 c3         1 L20      -0.002400
      2 C2           1.4740     0.0000     0.0000 cc         1 L20       0.354900
      3 N3           2.1310     0.0000     1.1620 nd         1 L20      -0.631100
      4 N4           3.4210    -0.0010     0.7890 na         1 L20       0.486900
      5 C6           3.6130    -0.0020    -0.5670 ca         1 L20      -0.212200
      6 C7           4.7760    -0.0030    -1.3400 ca         1 L20      -0.093000
      7 C8           4.6140    -0.0020    -2.7290 ca         1 L20      -0.058000
      8 C9           3.3430    -0.0020    -3.3130 cp         1 L20      -0.099000
      9 C10          2.1900    -0.0010    -2.5140 ca         1 L20       0.011000
     10 C11          2.3360    -0.0010    -1.1180 ca         1 L20      -0.223900
     11 C12          3.2140    -0.0030    -4.7500 cp         1 L20      -0.075300
     12 C13          4.1740     0.5920    -5.5540 ca         1 L20       0.382200
     13 N14          4.1140     0.6280    -6.9040 nb         1 L20      -0.531000
     14 C15          3.0390     0.0400    -7.4730 ca         1 L20       0.309200
     15 C16          2.0360    -0.5740    -6.7530 ca         1 L20      -0.004200
     16 O17          0.9710    -1.1480    -7.3940 os         1 L20      -0.274900
     17 C18          1.2120    -1.6750    -8.6940 c3         1 L20       0.214400
     18 C19          0.2800    -2.8620    -8.9440 c3         1 L20      -0.132500
     19 N21          0.4520    -3.3410   -10.3000 nz         1 L20       0.103400
     20 C25          0.5290    -4.0090    -7.9320 c3         1 L20       0.107800
     21 C26         -0.1270    -3.8150    -6.6220 cc         1 L20      -0.207400
     22 C27         -1.4230    -3.3950    -6.4260 cd         1 L20      -0.261100
     23 N28         -1.6490    -3.3400    -5.0770 na         1 L20       0.407600
     24 C30         -0.5180    -3.7210    -4.3900 ca         1 L20      -0.239200
     25 C31         -0.2860    -3.8170    -3.0140 ca         1 L20      -0.089000
     26 C32          0.9800    -4.2380    -2.5990 ca         1 L20      -0.073000
     27 C33          1.9740    -4.5480    -3.5260 ca         1 L20      -0.096000
     28 C34          1.7280    -4.4470    -4.9000 ca         1 L20      -0.069000
     29 C35          0.4580    -4.0260    -5.3420 ca         1 L20      -0.069800
     30 C36          2.1220    -0.5970    -5.3730 ca         1 L20      -0.089000
     31 H1C1        -0.3610     0.6760    -0.7650 hc         1 L20       0.013700
     32 H1C2        -0.3610     0.3250     0.9680 hc         1 L20       0.013700
     33 H1C3        -0.3610    -1.0010    -0.2030 hc         1 L20       0.013700
     34 H4           4.1770    -0.0010     1.4450 hn         1 L20       0.140700
     35 H7           5.7590    -0.0040    -0.8840 ha         1 L20       0.119000
     36 H8           5.4900    -0.0030    -3.3660 ha         1 L20       0.110000
     37 H10          1.2050    -0.0010    -2.9660 ha         1 L20       0.106000
     38 H13          5.0260     1.0560    -5.0710 h4         1 L20      -0.004900
     39 H36          1.3480    -1.0730    -4.7830 ha         1 L20       0.133000
     40 H15          2.9600     0.0520    -8.5540 h4         1 L20      -0.029900
     41 H181         2.2420    -2.0030    -8.7660 h1         1 L20       0.016200
     42 H182         1.0250    -0.9070    -9.4350 h1         1 L20       0.016200
     43 H19         -0.7420    -2.5230    -8.8290 hx         1 L20       0.099700
     44 H211         0.2930    -2.5890   -10.9410 hn         1 L20       0.220800
     45 H212        -0.2030    -4.0760   -10.4800 hn         1 L20       0.220800
     46 H251         0.1650    -4.9330    -8.3640 hc         1 L20       0.023700
     47 H252         1.5960    -4.1000    -7.7720 hc         1 L20       0.023700
     48 H27         -2.1560    -3.2100    -7.2020 h4         1 L20       0.135000
     49 H28         -2.5120    -3.0650    -4.6520 hn         1 L20       0.122700
     50 H31         -1.0600    -3.5750    -2.2960 ha         1 L20       0.116000
     51 H32          1.1940    -4.3230    -1.5410 ha         1 L20       0.114000
     52 H33          2.9480    -4.8720    -3.1790 ha         1 L20       0.113000
     53 H34          2.5040    -4.6900    -5.6160 ha         1 L20       0.099000
     54 H213         1.3880    -3.6710   -10.4210 hn         1 L20       0.220800
@<TRIPOS>BOND
     1     1     2 1   
     2     1    31 1   
     3     1    32 1   
     4     1    33 1   
     5     2     3 2   
     6     2    10 1   
     7     3     4 1   
     8     4     5 1   
     9     4    34 1   
    10     5     6 ar  
    11     5    10 ar  
    12     6     7 ar  
    13     6    35 1   
    14     7     8 ar  
    15     7    36 1   
    16     8     9 ar  
    17     8    11 1   
    18     9    10 ar  
    19     9    37 1   
    20    11    12 ar  
    21    11    30 ar  
    22    12    13 ar  
    23    12    38 1   
    24    13    14 ar  
    25    14    15 ar  
    26    14    40 1   
    27    15    16 1   
    28    15    30 ar  
    29    16    17 1   
    30    17    18 1   
    31    17    41 1   
    32    17    42 1   
    33    18    19 1   
    34    18    20 1   
    35    18    43 1   
    36    19    44 1   
    37    19    45 1   
    38    19    54 1   
    39    20    21 1   
    40    20    46 1   
    41    20    47 1   
    42    21    22 2   
    43    21    29 1   
    44    22    23 1   
    45    22    48 1   
    46    23    24 1   
    47    23    49 1   
    48    24    25 ar  
    49    24    29 ar  
    50    25    26 ar  
    51    25    50 1   
    52    26    27 ar  
    53    26    51 1   
    54    27    28 ar  
    55    27    52 1   
    56    28    29 ar  
    57    28    53 1   
    58    30    39 1   
@<TRIPOS>SUBSTRUCTURE
     1 L20         1 TEMP              0 ****  ****    0 ROOT
