@<TRIPOS>MOLECULE
molecule
   28    29     1     0     0
SMALL
bcc


@<TRIPOS>ATOM
      1 C14          0.0000     0.0000     0.0000 c3         1 L21      -0.105400
      2 C13          1.5070     0.0000     0.0000 c2         1 L21       0.077600
      3 C15          2.1620     0.0000     1.1340 c2         1 L21      -0.484200
      4 C12          2.2610    -0.0010    -1.3050 c3         1 L21      -0.105400
      5 C6           2.8980    -3.4040     4.5960 cc         1 L21       0.807200
      6 C5           3.4880    -2.1470     4.8120 cd         1 L21      -0.091900
      7 N9           4.4800    -1.6800     5.5890 nd         1 L21      -0.630100
      8 C4           2.9930    -1.0400     4.0890 cd         1 L21      -0.024300
      9 N7           3.7070     0.0090     4.4690 nc         1 L21      -0.472300
     10 C8           4.5990    -0.3880     5.3700 cc         1 L21       0.595200
     11 C80          1.4140    -0.1240     2.4370 c3         1 L21       0.014500
     12 N3           1.9570    -1.2450     3.2080 na         1 L21      -0.099900
     13 C2           1.4440    -2.4780     3.0550 cd         1 L21       0.557400
     14 N1           1.8990    -3.5110     3.7160 nc         1 L21      -0.770000
     15 H141        -0.3610    -0.9430     0.3920 hc         1 L21       0.060867
     16 H142        -0.3610     0.8110     0.6210 hc         1 L21       0.060867
     17 H143        -0.3610     0.1320    -1.0130 hc         1 L21       0.060867
     18 H15          1.7000     0.8550     1.6130 ha         1 L21       0.299000
     19 H121         3.3250    -0.0400    -1.1070 hc         1 L21       0.060867
     20 H122         2.0280     0.9010    -1.8570 hc         1 L21       0.060867
     21 H123         1.9700    -0.8660    -1.8890 hc         1 L21       0.060867
     22 H801         0.3640    -0.2990     2.2340 h1         1 L21       0.057200
     23 H802         1.5240     0.7920     3.0050 h1         1 L21       0.057200
     24 H101         2.9270    -4.7640     6.1490 hn         1 L21       0.448800
     25 H102         4.0730    -5.0770     4.8860 hn         1 L21       0.448800
     26 H8           5.3200     0.2590     5.8540 h5         1 L21       0.072800
     27 H2           0.6310    -2.6230     2.3540 h5         1 L21       0.055100
     28 N10          3.3470    -4.5090     5.2770 nv         1 L21      -1.072500
@<TRIPOS>BOND
     1     1     2 1
     2     2     3 2
     3     2     4 1
     4     3    11 1
     5    28     5 1
     6     5     6 2
     7     5    14 1
     8     6     7 1
     9     6     8 1
    10     7    10 2
    11     8     9 2
    12     8    12 1
    13     9    10 1
    14    11    12 1
    15    12    13 1
    16    13    14 2
    17     1    15 1
    18     1    16 1
    19     1    17 1
    20     3    18 1
    21     4    19 1
    22     4    20 1
    23     4    21 1
    24    11    22 1
    25    11    23 1
    26    28    24 1
    27    28    25 1
    28    10    26 1
    29    13    27 1
@<TRIPOS>SUBSTRUCTURE
     1 L21         1 TEMP              0 ****  ****    0 ROOT
