@<TRIPOS>MOLECULE
L21
   28    29     1     0     0
SMALL
bcc


@<TRIPOS>ATOM
      1 C14          0.0000     0.0000     0.0000 c3         1 L21       0.052600
      2 C13          1.5070     0.0000     0.0000 c2         1 L21      -0.109400
      3 C15          2.1620     0.0000     1.1340 c2         1 L21      -0.209200
      4 C12          2.2610    -0.0010    -1.3050 c3         1 L21       0.052600
      5 C6           2.8980    -3.4040     4.5960 cc         1 L21       0.631200
      6 C5           3.4880    -2.1470     4.8120 cd         1 L21      -0.107900
      7 N9           4.4800    -1.6800     5.5890 nd         1 L21      -0.560100
      8 C4           2.9930    -1.0400     4.0890 cd         1 L21      -0.256300
      9 N7           3.7070     0.0090     4.4690 nc         1 L21      -0.396300
     10 C8           4.5990    -0.3880     5.3700 cc         1 L21       0.576200
     11 C80          1.4140    -0.1240     2.4370 c3         1 L21      -0.048500
     12 N3           1.9570    -1.2450     3.2080 na         1 L21       0.413100
     13 C2           1.4440    -2.4780     3.0550 cd         1 L21       0.333400
     14 N1           1.8990    -3.5110     3.7160 nc         1 L21      -0.656000
     15 H141        -0.3610     0.1640    -1.0080 hc         1 L21       0.012367
     16 H142        -0.3610     0.7910     0.6460 hc         1 L21       0.012367
     17 H143        -0.3610    -0.9550     0.3620 hc         1 L21       0.012367
     18 H15          3.2460     0.0000     1.1330 ha         1 L21       0.133000
     19 H121         1.8900    -0.8000    -1.9350 hc         1 L21       0.012367
     20 H122         3.3160    -0.1530    -1.1130 hc         1 L21       0.012367
     21 H123         2.1180     0.9490    -1.8050 hc         1 L21       0.012367
     22 H801         1.5240     0.7920     3.0050 h1         1 L21       0.059700
     23 H802         0.3640    -0.2990     2.2340 h1         1 L21       0.059700
     24 H101         2.8990    -4.7890     6.1270 hn         1 L21       0.287300
     25 H102         4.1000    -5.0540     4.9060 hn         1 L21       0.287300
     26 H8           5.3200     0.2590     5.8540 h5         1 L21       0.017800
     27 H2           0.6310    -2.6230     2.3540 h5         1 L21       0.010100
     28 N10          3.3470    -4.5090     5.2770 nv         1 L21      -0.642500
@<TRIPOS>BOND
     1     1     2 1   
     2     1    15 1   
     3     1    16 1   
     4     1    17 1   
     5     2     3 2   
     6     2     4 1   
     7     3    11 1   
     8     3    18 1   
     9     4    19 1   
    10     4    20 1   
    11     4    21 1   
    12     5     6 2   
    13     5    14 1   
    14     5    28 1   
    15     6     7 1   
    16     6     8 1   
    17     7    10 2   
    18     8     9 2   
    19     8    12 1   
    20     9    10 1   
    21    10    26 1   
    22    11    12 1   
    23    11    22 1   
    24    11    23 1   
    25    12    13 1   
    26    13    14 2   
    27    13    27 1   
    28    24    28 1   
    29    25    28 1   
@<TRIPOS>SUBSTRUCTURE
     1 L21         1 TEMP              0 ****  ****    0 ROOT
