@<TRIPOS>MOLECULE
L22
   20    21     1     0     0
SMALL
bcc


@<TRIPOS>ATOM
      1 N13          0.0000     0.0000     0.0000 nv         1 L22      -0.560500
      2 C10          1.3850     0.0000     0.0000 cc         1 L22       0.560300
      3 S9           2.4010     0.0000     1.4380 ss         1 L22      -0.391300
      4 C5           3.8420    -0.0000     0.4240 cc         1 L22      -0.039400
      5 N6           2.1330    -0.0060    -1.0590 nd         1 L22      -0.549000
      6 C2           3.4520     0.0000    -0.8630 cd         1 L22       0.249300
      7 C1           4.4190     0.0010    -1.9840 ca         1 L22       0.430300
      8 C4           3.9710     0.0000    -3.3100 ca         1 L22      -0.392600
      9 C8           4.9100     0.0010    -4.3230 ca         1 L22       0.488200
     10 N11          6.1990     0.0020    -4.0130 nb         1 L22      -0.703000
     11 C7           6.5960     0.0010    -2.7480 ca         1 L22       0.710900
     12 N3           5.7300     0.0060    -1.7470 nb         1 L22      -0.698000
     13 N12          7.9520     0.0020    -2.4680 nv         1 L22      -0.503500
     14 H131        -0.5000     0.8670     0.0050 hn         1 L22       0.276800
     15 H132        -0.5000    -0.8670     0.0110 hn         1 L22       0.276800
     16 H5           4.8660     0.0020     0.7770 h4         1 L22       0.171000
     17 H4           2.9110    -0.0010    -3.5370 ha         1 L22       0.142000
     18 H8           4.5970     0.0010    -5.3600 h4         1 L22      -0.019900
     19 H121         8.6180     0.0010    -3.2150 hn         1 L22       0.275300
     20 H122         8.2660     0.0040    -1.5170 hn         1 L22       0.275300
@<TRIPOS>BOND
     1     1     2 1   
     2     1    14 1   
     3     1    15 1   
     4     2     3 1   
     5     2     5 2   
     6     3     4 1   
     7     4     6 2   
     8     4    16 1   
     9     5     6 1   
    10     6     7 1   
    11     7     8 ar  
    12     7    12 ar  
    13     8     9 ar  
    14     8    17 1   
    15     9    10 ar  
    16     9    18 1   
    17    10    11 ar  
    18    11    12 ar  
    19    11    13 1   
    20    13    19 1   
    21    13    20 1   
@<TRIPOS>SUBSTRUCTURE
     1 L22         1 TEMP              0 ****  ****    0 ROOT
