@<TRIPOS>MOLECULE
molecule
   20    21     1     0     0
SMALL
bcc


@<TRIPOS>ATOM
      1 N13          0.0000     0.0000     0.0000 nv         1 L22      -1.027500
      2 C10          1.3850     0.0000     0.0000 cc         1 L22       0.728300
      3 S9           2.4010     0.0000     1.4380 ss         1 L22      -0.297300
      4 C5           3.8420    -0.0000     0.4240 cc         1 L22      -0.108400
      5 N6           2.1330    -0.0060    -1.0590 nd         1 L22      -0.683000
      6 C2           3.4520     0.0000    -0.8630 cd         1 L22       0.300300
      7 C1           4.4190     0.0010    -1.9840 ca         1 L22       0.479300
      8 C4           3.9710     0.0000    -3.3100 ca         1 L22      -0.409600
      9 C8           4.9100     0.0010    -4.3230 ca         1 L22       0.493200
     10 N11          6.1990     0.0020    -4.0130 nb         1 L22      -0.802000
     11 C7           6.5960     0.0010    -2.7480 ca         1 L22       0.946900
     12 N3           5.7300     0.0060    -1.7470 nb         1 L22      -0.807000
     13 N12          7.9520     0.0020    -2.4680 nv         1 L22      -0.993500
     14 H131        -0.5000     0.8670     0.0050 hn         1 L22       0.445800
     15 H132        -0.5000    -0.8670     0.0110 hn         1 L22       0.445800
     16 H5           4.8660     0.0020     0.7770 h4         1 L22       0.198000
     17 H4           2.9110    -0.0010    -3.5370 ha         1 L22       0.164000
     18 H8           4.5970     0.0010    -5.3600 h4         1 L22       0.029100
     19 H121         8.6180     0.0010    -3.2150 hn         1 L22       0.449300
     20 H122         8.2660     0.0040    -1.5170 hn         1 L22       0.449300
@<TRIPOS>BOND
     1     1     2 1
     2     2     3 1
     3     2     5 2
     4     3     4 1
     5     4     6 2
     6     5     6 1
     7     6     7 1
     8     7     8 ar
     9     7    12 ar
    10     8     9 ar
    11     9    10 ar
    12    10    11 ar
    13    11    12 ar
    14    11    13 1
    15     1    14 1
    16     1    15 1
    17     4    16 1
    18     8    17 1
    19     9    18 1
    20    13    19 1
    21    13    20 1
@<TRIPOS>SUBSTRUCTURE
     1 L22         1 TEMP              0 ****  ****    0 ROOT
