@<TRIPOS>MOLECULE
L23
   35    37     1     0     0
SMALL
bcc


@<TRIPOS>ATOM
      1 Cl21         0.0000     0.0000     0.0000 cl         1 L23       0.001100
      2 C17          1.7360     0.0000     0.0000 ca         1 L23      -0.014100
      3 C20          2.4290     0.0000     1.1970 ca         1 L23      -0.095000
      4 C22          3.8100    -0.0010     1.1970 ca         1 L23      -0.066000
      5 C18          4.5020    -0.0020     0.0000 ca         1 L23      -0.095000
      6 C16          3.8100    -0.0010    -1.1980 ca         1 L23      -0.014100
      7 Cl19         4.6780    -0.0010    -2.7010 cl         1 L23       0.001100
      8 C15          2.4270    -0.0070    -1.1990 ca         1 L23      -0.121300
      9 C11          1.6730    -0.0120    -2.5040 c3         1 L23       0.004600
     10 N7           1.3400     1.3630    -2.8820 na         1 L23       0.301100
     11 C3           1.7430     2.4970    -2.2400 cc         1 L23      -0.379600
     12 C8           0.5800     1.7430    -3.9400 cc         1 L23       0.187800
     13 C12         -0.0710     0.8130    -4.9300 c3         1 L23       0.008600
     14 N4           0.5040     3.0440    -3.9590 nd         1 L23      -0.591000
     15 C1           1.2100     3.5450    -2.9240 cd         1 L23       0.217300
     16 C2           1.3780     4.9790    -2.5940 ca         1 L23       0.457300
     17 C6           0.7740     5.9640    -3.3810 ca         1 L23      -0.387600
     18 C10          0.9580     7.2900    -3.0340 ca         1 L23       0.478200
     19 N13          1.6950     7.5850    -1.9740 nb         1 L23      -0.700000
     20 C9           2.2550     6.6320    -1.2450 ca         1 L23       0.708900
     21 N5           2.1010     5.3500    -1.5390 nb         1 L23      -0.695000
     22 N14          3.0170     6.9840    -0.1440 nv         1 L23      -0.528500
     23 H20          1.8880     0.0010     2.1360 ha         1 L23       0.121000
     24 H22          4.3520    -0.0010     2.1350 ha         1 L23       0.112000
     25 H18          5.5850    -0.0020     0.0000 ha         1 L23       0.121000
     26 H111         2.2890    -0.4590    -3.2740 h1         1 L23       0.047200
     27 H112         0.7620    -0.5870    -2.3920 h1         1 L23       0.047200
     28 H3           2.3650     2.5530    -1.3550 h4         1 L23       0.173000
     29 H121         0.6060    -0.0010    -5.1600 hc         1 L23       0.011367
     30 H122        -0.3030     1.3570    -5.8380 hc         1 L23       0.011367
     31 H123        -0.9830     0.4140    -4.5050 hc         1 L23       0.011367
     32 H6           0.1760     5.6950    -4.2430 ha         1 L23       0.142000
     33 H10          0.5040     8.0780    -3.6220 h4         1 L23      -0.020900
     34 H141         3.4750     7.8740    -0.1170 hn         1 L23       0.272800
     35 H142         3.1000     6.3550     0.6300 hn         1 L23       0.272800
@<TRIPOS>BOND
     1     1     2 1   
     2     2     3 ar  
     3     2     8 ar  
     4     3     4 ar  
     5     3    23 1   
     6     4     5 ar  
     7     4    24 1   
     8     5     6 ar  
     9     5    25 1   
    10     6     7 1   
    11     6     8 ar  
    12     8     9 1   
    13     9    10 1   
    14     9    26 1   
    15     9    27 1   
    16    10    11 1   
    17    10    12 1   
    18    11    15 2   
    19    11    28 1   
    20    12    13 1   
    21    12    14 2   
    22    13    29 1   
    23    13    30 1   
    24    13    31 1   
    25    14    15 1   
    26    15    16 1   
    27    16    17 ar  
    28    16    21 ar  
    29    17    18 ar  
    30    17    32 1   
    31    18    19 ar  
    32    18    33 1   
    33    19    20 ar  
    34    20    21 ar  
    35    20    22 1   
    36    22    34 1   
    37    22    35 1   
@<TRIPOS>SUBSTRUCTURE
     1 L23         1 TEMP              0 ****  ****    0 ROOT
