@<TRIPOS>MOLECULE
molecule
   55    57     1     0     0
SMALL
bcc


@<TRIPOS>ATOM
      1 N2A          0.0000     0.0000     0.0000 nv         1 L24      -1.061500
      2 N1           2.0300     0.0000     1.1570 nb         1 L24      -0.814000
      3 C2           1.3850     0.0000     0.0000 ca         1 L24       0.978900
      4 N3           2.0290     0.0050    -1.1560 nb         1 L24      -0.867000
      5 C4           3.3580     0.0030    -1.1960 ca         1 L24       0.703600
      6 O4A          4.0100     0.0080    -2.3840 oh         1 L24      -0.599300
      7 C5           4.0700    -0.0020    -0.0010 ca         1 L24      -0.393900
      8 C6           3.3600    -0.0050     1.1910 ca         1 L24       0.703200
      9 N7           4.0190    -0.0070     2.4100 nu         1 L24      -0.804900
     10 C8           5.4560    -0.3100     2.4420 c3         1 L24       0.181800
     11 C9           6.1310     0.4740     1.3110 c3         1 L24      -0.083700
     12 C10          5.5730    -0.0100    -0.0280 c3         1 L24      -0.012100
     13 C11          7.6420     0.2410     1.3520 c3         1 L24      -0.074400
     14 C12          8.1980     0.7270     2.6920 c3         1 L24      -0.032100
     15 C1B          9.6860     0.4980     2.7310 ca         1 L24      -0.103300
     16 C2B         10.5460     1.4820     2.2800 ca         1 L24      -0.145000
     17 C3B         11.9100     1.2780     2.3140 ca         1 L24      -0.088500
     18 C4B         12.4210     0.0750     2.8060 ca         1 L24      -0.101600
     19 C5B         11.5470    -0.9130     3.2590 ca         1 L24      -0.088500
     20 C6B         10.1860    -0.6950     3.2250 ca         1 L24      -0.145000
     21 C7B         13.8820    -0.1500     2.8450 c          1 L24       0.652700
     22 O7B         14.6400     0.7130     2.4490 o          1 L24      -0.643100
     23 N           14.3720    -1.3110     3.3200 ns         1 L24      -0.501900
     24 CA          15.8200    -1.5340     3.3590 c3         1 L24      -0.000300
     25 CB          16.1610    -2.4640     4.5240 c3         1 L24      -0.064400
     26 CG          15.7090    -1.8230     5.8380 c3         1 L24      -0.185400
     27 CD          16.0460    -2.7370     6.9860 c          1 L24       0.890600
     28 OE1         16.5910    -3.7940     6.7760 o          1 L24      -0.873300
     29 OE2         15.7390    -2.3790     8.2430 o          1 L24      -0.873300
     30 C           16.2650    -2.1660     2.0660 c          1 L24       0.893600
     31 O           17.3780    -1.9560     1.6420 o          1 L24      -0.860800
     32 OXT         15.4260    -2.9610     1.3830 o          1 L24      -0.860800
     33 HN21        -0.5000     0.8660    -0.0320 hn         1 L24       0.439800
     34 HN22        -0.5000    -0.8670     0.0110 hn         1 L24       0.439800
     35 HO4          3.4110    -0.2290    -3.0720 ho         1 L24       0.437000
     36 HN7          3.5370    -0.6080     3.0490 hn         1 L24       0.398800
     37 H81          5.6090    -1.3720     2.2910 h1         1 L24       0.055700
     38 H82          5.8720    -0.0070     3.3950 h1         1 L24       0.055700
     39 H9           5.9190     1.5300     1.4280 hc         1 L24       0.066700
     40 H101         5.9220    -1.0180    -0.2160 hc         1 L24       0.061200
     41 H102         5.9190     0.6470    -0.8170 hc         1 L24       0.061200
     42 H111         8.1140     0.7890     0.5460 hc         1 L24       0.054700
     43 H112         7.8480    -0.8170     1.2390 hc         1 L24       0.054700
     44 H121         7.7270     0.1790     3.4980 hc         1 L24       0.039200
     45 H122         7.9930     1.7850     2.8050 hc         1 L24       0.039200
     46 H2B         10.1480     2.4150     1.8990 ha         1 L24       0.114000
     47 H3B         12.5830     2.0500     1.9610 ha         1 L24       0.151500
     48 H5B         11.9370    -1.8470     3.6430 ha         1 L24       0.151500
     49 H6B          9.5060    -1.4620     3.5760 ha         1 L24       0.114000
     50 HN          13.7460    -2.0330     3.6170 hn         1 L24       0.308500
     51 HA          16.3280    -0.5870     3.4920 h1         1 L24       0.066700
     52 HB1         15.6530    -3.4110     4.3910 hc         1 L24       0.058200
     53 HB2         17.2310    -2.6290     4.5520 hc         1 L24       0.058200
     54 HG1         16.2170    -0.8750     5.9700 hc         1 L24       0.022700
     55 HG2         14.6390    -1.6590     5.8090 hc         1 L24       0.022700
@<TRIPOS>BOND
     1     1     3 1
     2     1    33 1
     3     1    34 1
     4     2     3 ar
     5     2     8 ar
     6     3     4 ar
     7     4     5 ar
     8     5     6 1
     9     5     7 ar
    10     6    35 1
    11     7     8 ar
    12     7    12 1
    13     8     9 1
    14     9    10 1
    15     9    36 1
    16    10    11 1
    17    10    37 1
    18    10    38 1
    19    11    12 1
    20    11    13 1
    21    11    39 1
    22    12    40 1
    23    12    41 1
    24    13    14 1
    25    13    42 1
    26    13    43 1
    27    14    15 1
    28    14    44 1
    29    14    45 1
    30    15    16 ar
    31    15    20 ar
    32    16    17 ar
    33    16    46 1
    34    17    18 ar
    35    17    47 1
    36    18    19 ar
    37    18    21 1
    38    19    20 ar
    39    19    48 1
    40    20    49 1
    41    21    22 2
    42    21    23 1
    43    23    24 1
    44    23    50 1
    45    24    25 1
    46    24    30 1
    47    24    51 1
    48    25    26 1
    49    25    52 1
    50    25    53 1
    51    26    27 1
    52    26    54 1
    53    26    55 1
    54    27    28 1
    55    27    29 1
    56    30    31 1
    57    30    32 1
@<TRIPOS>SUBSTRUCTURE
     1 L24         1 TEMP              0 ****  ****    0 ROOT
