@<TRIPOS>MOLECULE
L26
   47    48     1     0     0
SMALL
bcc


@<TRIPOS>ATOM
      1 C15          0.0000     0.0000     0.0000 ca         1 L26       0.130100
      2 C14          1.3880     0.0000     0.0000 ca         1 L26      -0.231000
      3 C12          1.3940     0.0010     2.3960 ca         1 L26      -0.148000
      4 C4          -3.9810     1.2510     6.6500 cc         1 L26      -0.261600
      5 C3          -3.6950     1.4240     5.2750 cc         1 L26       0.008700
      6 C11          0.0050     0.0010     2.4010 ca         1 L26      -0.026400
      7 C16         -0.6920     0.0010     1.2010 ca         1 L26      -0.122000
      8 C13          2.0810     0.0000     1.1960 ca         1 L26      -0.025000
      9 C7          -2.5250     0.7700     5.0260 cd         1 L26      -0.447900
     10 C5          -2.9530     0.4920     7.1860 cd         1 L26      -0.250600
     11 C8          -1.8470     0.6840     3.7270 c          1 L26       0.643700
     12 C26         -2.8310     0.0620     8.6240 c3         1 L26       0.097200
     13 C29         -6.3890     0.9450     7.5100 c3         1 L26      -0.087100
     14 N6          -2.0860     0.2030     6.2040 na         1 L26       0.435900
     15 N10         -0.6900     0.0020     3.6140 ns         1 L26      -0.054100
     16 O28         -5.0990     2.8910     7.8590 o          1 L26      -0.547100
     17 O9          -2.3310     1.2280     2.7520 o          1 L26      -0.630100
     18 O1          -0.6790     0.0050    -1.1770 os         1 L26      -0.269900
     19 C6          -4.0690     3.6470     4.2400 c3         1 L26       0.011900
     20 C9           0.0990     0.0040    -2.3760 c3         1 L26       0.152400
     21 C10         -0.8190     0.0100    -3.5710 c          1 L26       0.285100
     22 O11         -2.0210     0.0150    -3.4120 o          1 L26      -0.352100
     23 N12         -0.3040     0.0100    -4.8160 nz         1 L26       0.203600
     24 H1           1.9290    -0.0010    -0.9390 ha         1 L26       0.097000
     25 H2           1.9390     0.0010     3.3320 ha         1 L26       0.119000
     26 H3          -1.7750     0.0010     1.2020 ha         1 L26       0.166000
     27 H4           3.1640    -0.0000     1.1930 ha         1 L26       0.111000
     28 H5          -1.8300    -0.3110     8.8060 hc         1 L26       0.016033
     29 H6          -3.5500    -0.7220     8.8290 hc         1 L26       0.016033
     30 H7          -3.0240     0.9080     9.2720 hc         1 L26       0.016033
     31 H8          -7.2300     1.4770     7.0800 hc         1 L26       0.025033
     32 H9          -6.2300     0.0220     6.9660 hc         1 L26       0.025033
     33 H10         -6.5970     0.7200     8.5490 hc         1 L26       0.025033
     34 H11         -4.4000     1.7460     3.2920 hc         1 L26       0.029200
     35 H12         -5.5680     2.1400     4.5610 hc         1 L26       0.029200
     36 H13         -1.2500    -0.3360     6.3100 hn         1 L26       0.103700
     37 H14         -0.3460    -0.5310     4.3880 hn         1 L26       0.167500
     38 H15         -4.8390     4.2750     4.6710 hc         1 L26       0.005700
     39 H16         -3.8980     3.9400     3.2110 hc         1 L26       0.005700
     40 H17         -3.1520     3.7600     4.8050 hc         1 L26       0.005700
     41 H18          0.7280     0.8850    -2.3990 h1         1 L26       0.040200
     42 H19          0.7200    -0.8840    -2.4020 h1         1 L26       0.040200
     43 H20          0.0840    -0.8910    -5.0160 hn         1 L26       0.247133
     44 H21         -1.0280     0.2160    -5.4760 hn         1 L26       0.247133
     45 C27         -5.1420     1.7810     7.3720 c          1 L26       0.662700
     46 H123         0.4140     0.7040    -4.8800 hn         1 L26       0.247133
     47 C2          -4.5250     2.1860     4.2740 c3         1 L26       0.037900
@<TRIPOS>BOND
     1     1     2 ar  
     2     1     7 ar  
     3     1    18 1   
     4     2     8 ar  
     5     2    24 1   
     6     3     6 ar  
     7     3     8 ar  
     8     3    25 1   
     9     4     5 1   
    10     4    10 2   
    11     4    45 1   
    12     5     9 2   
    13     5    47 1   
    14     6     7 ar  
    15     6    15 1   
    16     7    26 1   
    17     8    27 1   
    18     9    11 1   
    19     9    14 1   
    20    10    12 1   
    21    10    14 1   
    22    11    15 1   
    23    11    17 2   
    24    12    28 1   
    25    12    29 1   
    26    12    30 1   
    27    13    31 1   
    28    13    32 1   
    29    13    33 1   
    30    13    45 1   
    31    14    36 1   
    32    15    37 1   
    33    16    45 2   
    34    18    20 1   
    35    19    38 1   
    36    19    39 1   
    37    19    40 1   
    38    19    47 1   
    39    20    21 1   
    40    20    41 1   
    41    20    42 1   
    42    21    22 2   
    43    21    23 1   
    44    23    43 1   
    45    23    44 1   
    46    23    46 1   
    47    34    47 1   
    48    35    47 1   
@<TRIPOS>SUBSTRUCTURE
     1 L26         1 TEMP              0 ****  ****    0 ROOT
