@<TRIPOS>MOLECULE
molecule
   47    48     1     0     0
SMALL
bcc


@<TRIPOS>ATOM
      1 C15          0.0000     0.0000     0.0000 ca         1 L26       0.121100
      2 C14          1.3880     0.0000     0.0000 ca         1 L26      -0.243000
      3 C12          1.3940     0.0010     2.3960 ca         1 L26      -0.173000
      4 C4          -3.9810     1.2510     6.6500 cc         1 L26      -0.259600
      5 C3          -3.6950     1.4240     5.2750 cc         1 L26      -0.004300
      6 C11          0.0050     0.0010     2.4010 ca         1 L26       0.111600
      7 C16         -0.6920     0.0010     1.2010 ca         1 L26      -0.135000
      8 C13          2.0810     0.0000     1.1960 ca         1 L26      -0.064000
      9 C7          -2.5250     0.7700     5.0260 cd         1 L26      -0.229900
     10 C5          -2.9530     0.4920     7.1860 cd         1 L26      -0.035600
     11 C8          -1.8470     0.6840     3.7270 c          1 L26       0.715700
     12 C26         -2.8310     0.0620     8.6240 c3         1 L26      -0.033800
     13 C29         -6.3890     0.9450     7.5100 c3         1 L26      -0.188100
     14 N6          -2.0860     0.2030     6.2040 na         1 L26      -0.143100
     15 N10         -0.6900     0.0020     3.6140 ns         1 L26      -0.484100
     16 O28         -5.0990     2.8910     7.8590 o          1 L26      -0.509100
     17 O9          -2.3310     1.2280     2.7520 o          1 L26      -0.588100
     18 O1          -0.6790     0.0050    -1.1770 os         1 L26      -0.292900
     19 C6          -4.0690     3.6470     4.2400 c3         1 L26      -0.082100
     20 C9           0.0990     0.0040    -2.3760 c3         1 L26       0.079400
     21 C10         -0.8190     0.0100    -3.5710 c          1 L26       0.463100
     22 O11         -2.0210     0.0150    -3.4120 o          1 L26      -0.347100
     23 N12         -0.3040     0.0100    -4.8160 nz         1 L26      -0.683400
     24 H1           1.9290    -0.0010    -0.9390 ha         1 L26       0.112000
     25 H2           1.9390     0.0010     3.3320 ha         1 L26       0.148000
     26 H3          -1.7750     0.0010     1.2020 ha         1 L26       0.190000
     27 H4           3.1640    -0.0000     1.1930 ha         1 L26       0.146000
     28 H5          -1.8300    -0.3110     8.8060 hc         1 L26       0.059033
     29 H6          -3.5500    -0.7220     8.8290 hc         1 L26       0.059033
     30 H7          -3.0240     0.9080     9.2720 hc         1 L26       0.059033
     31 H8          -7.2300     1.4770     7.0800 hc         1 L26       0.062700
     32 H9          -6.2300     0.0220     6.9660 hc         1 L26       0.062700
     33 H10         -6.5970     0.7200     8.5490 hc         1 L26       0.062700
     34 H11         -4.4000     1.7460     3.2920 hc         1 L26       0.059200
     35 H12         -5.5680     2.1400     4.5610 hc         1 L26       0.059200
     36 H13         -1.2500    -0.3360     6.3100 hn         1 L26       0.292700
     37 H14         -0.3460    -0.5310     4.3880 hn         1 L26       0.326500
     38 H15         -4.8390     4.2750     4.6710 hc         1 L26       0.040033
     39 H16         -3.8980     3.9400     3.2110 hc         1 L26       0.040033
     40 H17         -3.1520     3.7600     4.8050 hc         1 L26       0.040033
     41 H18          0.7280     0.8850    -2.3990 h1         1 L26       0.082200
     42 H19          0.7200    -0.8840    -2.4020 h1         1 L26       0.082200
     43 H20          0.0840    -0.8910    -5.0160 hn         1 L26       0.480467
     44 H21         -1.0280     0.2160    -5.4760 hn         1 L26       0.480467
     45 C27         -5.1420     1.7810     7.3720 c          1 L26       0.605700
     46 H123         0.4140     0.7040    -4.8800 hn         1 L26       0.480467
     47 C2          -4.5250     2.1860     4.2740 c3         1 L26      -0.023100
@<TRIPOS>BOND
     1    22    21 2
     2    21    23 1
     3    21    20 1
     4    20    18 1
     5    18     1 1
     6     1     7 ar
     7     1     2 ar
     8     7     6 ar
     9     2     8 ar
    10    12    10 1
    11     6    15 1
    12     6     3 ar
    13     8     3 ar
    14    15    11 1
    15    14    10 1
    16    14     9 1
    17    10     4 2
    18     9    11 1
    19     9     5 2
    20    11    17 2
    21     4    45 1
    22     4     5 1
    23    16    45 2
    24    45    13 1
    25     5    47 1
    26    47    19 1
    27     2    24 1
    28     3    25 1
    29     7    26 1
    30     8    27 1
    31    12    28 1
    32    12    29 1
    33    12    30 1
    34    13    31 1
    35    13    32 1
    36    13    33 1
    37    47    34 1
    38    47    35 1
    39    14    36 1
    40    15    37 1
    41    19    38 1
    42    19    39 1
    43    19    40 1
    44    20    41 1
    45    20    42 1
    46    23    43 1
    47    23    44 1
    48    46    23 1
@<TRIPOS>SUBSTRUCTURE
     1 L26         1 TEMP              0 ****  ****    0 ROOT
