@<TRIPOS>MOLECULE
L27
   81    86     1     0     0
SMALL
bcc


@<TRIPOS>ATOM
      1 O01          0.0000     0.0000     0.0000 os         1 L27      -0.425900
      2 C02         -0.6740    -1.1640    -0.0670 c          1 L27       0.677100
      3 O03         -0.0660    -2.2150    -0.1270 o          1 L27      -0.645000
      4 NP4         -2.0210    -1.1640    -0.0650 ns         1 L27      -0.166900
      5 C05         -2.7540    -2.4310    -0.1380 c3         1 L27       0.000700
      6 C06         -4.1410    -2.1840    -0.7340 c3         1 L27       0.166100
      7 O07         -4.8580    -1.2650     0.0950 oh         1 L27      -0.606800
      8 C08         -3.9960    -1.5970    -2.1390 c3         1 L27      -0.025400
      9 C09         -5.3780    -1.4670    -2.7830 c3         1 L27      -0.008800
     10 C10         -5.2590    -0.8820    -4.1910 c3         1 L27       0.043900
     11 C11         -6.6350    -0.6480    -4.7570 ca         1 L27      -0.108300
     12 C12         -7.2680     0.5640    -4.5570 ca         1 L27      -0.095500
     13 C13         -8.5320     0.7780    -5.0750 ca         1 L27      -0.099000
     14 C14         -9.1620    -0.2200    -5.7940 ca         1 L27      -0.101000
     15 C15         -8.5290    -1.4320    -5.9950 ca         1 L27      -0.099000
     16 C16         -7.2640    -1.6450    -5.4800 ca         1 L27      -0.095500
     17 C17         -6.0730    -2.8130    -2.8240 c          1 L27       0.651300
     18 O18         -5.7060    -3.8170    -3.4010 o          1 L27      -0.563100
     19 N29         -6.2570    -0.6300    -1.9500 nu         1 L27      -0.314000
     20 C30         -7.3110    -1.3960    -1.5660 c2         1 L27       0.064000
     21 C35         -7.2360    -2.6520    -2.0490 ce         1 L27      -0.435400
     22 C36         -2.8990    -3.0170     1.2680 c3         1 L27       0.010900
     23 C37         -1.5370    -3.3740     1.8060 ca         1 L27      -0.081300
     24 C38         -0.8100    -2.4410     2.5220 ca         1 L27      -0.090500
     25 C39          0.4380    -2.7680     3.0160 ca         1 L27      -0.093000
     26 C40          0.9600    -4.0290     2.7940 ca         1 L27      -0.094000
     27 C41          0.2330    -4.9630     2.0810 ca         1 L27      -0.093000
     28 C42         -1.0180    -4.6370     1.5900 ca         1 L27      -0.090500
     29 C44          1.4520     0.0000     0.0000 c3         1 L27       0.175100
     30 C45          1.9940     0.0000     1.4460 c3         1 L27       0.174400
     31 O46          3.1620     0.8510     1.4000 os         1 L27      -0.398600
     32 C47          2.7980     1.9560     0.5430 c3         1 L27       0.207400
     33 C48          1.9930     1.3140    -0.6080 c3         1 L27      -0.071400
     34 C49         -7.5850    -4.9050    -1.0870 c3         1 L27       0.052000
     35 C50         -8.2560    -3.7320    -1.7970 c3         1 L27       0.115800
     36 C51         -8.8350    -4.1890    -3.1090 ca         1 L27      -0.061300
     37 C52         -8.2000    -5.1960    -3.8320 ca         1 L27      -0.125600
     38 C53         -6.9760    -5.8110    -3.2740 c          1 L27       0.673100
     39 N54         -6.6610    -5.5980    -1.9810 ns         1 L27      -0.192900
     40 C55         -9.9870    -3.6100    -3.6060 ca         1 L27      -0.108000
     41 C56        -10.4960    -4.0220    -4.8260 ca         1 L27      -0.090000
     42 C57         -9.8530    -5.0050    -5.5570 ca         1 L27      -0.124000
     43 C58         -8.7030    -5.5920    -5.0680 ca         1 L27      -0.039000
     44 O59         -6.2630    -6.5030    -3.9740 o          1 L27      -0.685500
     45 H1          -2.5220    -0.3010     0.0150 hn         1 L27       0.184500
     46 H2          -2.2100    -3.1270    -0.7650 h1         1 L27       0.075700
     47 H3          -4.6830    -3.1210    -0.7880 h1         1 L27       0.031700
     48 H4          -5.2300    -1.7270     0.8280 ho         1 L27       0.403000
     49 H5          -3.5330    -0.6200    -2.0760 hc         1 L27       0.042700
     50 H6          -3.3770    -2.2520    -2.7410 hc         1 L27       0.042700
     51 H7          -4.7210    -1.5750    -4.8260 hc         1 L27       0.034200
     52 H8          -4.7220     0.0580    -4.1470 hc         1 L27       0.034200
     53 H9          -6.7740     1.3460    -3.9930 ha         1 L27       0.112500
     54 H10         -9.0280     1.7280    -4.9180 ha         1 L27       0.106000
     55 H11        -10.1530    -0.0530    -6.1990 ha         1 L27       0.102000
     56 H12         -9.0220    -2.2140    -6.5600 ha         1 L27       0.106000
     57 H13         -6.7680    -2.5950    -5.6380 ha         1 L27       0.112500
     58 H14         -6.1050     0.3290    -1.7100 hn         1 L27       0.312800
     59 H15         -8.1200    -1.0380    -0.9420 h4         1 L27       0.124000
     60 H16         -3.3630    -2.2850     1.9190 hc         1 L27       0.021200
     61 H17         -3.5160    -3.9070     1.2270 hc         1 L27       0.021200
     62 H18         -1.2200    -1.4530     2.6950 ha         1 L27       0.099500
     63 H19          1.0080    -2.0370     3.5760 ha         1 L27       0.100500
     64 H20          1.9400    -4.2850     3.1800 ha         1 L27       0.100000
     65 H21          0.6410    -5.9520     1.9090 ha         1 L27       0.100500
     66 H22         -1.5890    -5.3690     1.0310 ha         1 L27       0.099500
     67 H23          1.8360    -0.8530    -0.5460 h1         1 L27       0.051700
     68 H24          1.2560     0.4110     2.1250 h1         1 L27       0.024200
     69 H25          2.2720    -1.0040     1.7430 h1         1 L27       0.024200
     70 H26          3.6870     2.4400     0.1560 h1         1 L27       0.010200
     71 H27          2.1810     2.6640     1.0840 h1         1 L27       0.010200
     72 H28          1.1740     1.9600    -0.9030 hc         1 L27       0.032700
     73 H29          2.6410     1.1020    -1.4500 hc         1 L27       0.032700
     74 H30         -7.0230    -4.5210    -0.2440 h1         1 L27       0.011700
     75 H31         -8.3520    -5.6040    -0.7760 h1         1 L27       0.011700
     76 H32         -9.0510    -3.3430    -1.1710 hc         1 L27       0.027700
     77 H33         -5.7820    -5.9210    -1.6290 hn         1 L27       0.180500
     78 H34        -10.4950    -2.8390    -3.0390 ha         1 L27       0.103000
     79 H35        -11.3980    -3.5650    -5.2150 ha         1 L27       0.099000
     80 H36        -10.2570    -5.3220    -6.5110 ha         1 L27       0.104000
     81 H37         -8.1990    -6.3620    -5.6400 ha         1 L27       0.126000
@<TRIPOS>BOND
     1     1     2 1   
     2     1    29 1   
     3     2     3 2   
     4     2     4 1   
     5     4     5 1   
     6     4    45 1   
     7     5     6 1   
     8     5    22 1   
     9     5    46 1   
    10     6     7 1   
    11     6     8 1   
    12     6    47 1   
    13     7    48 1   
    14     8     9 1   
    15     8    49 1   
    16     8    50 1   
    17     9    10 1   
    18     9    17 1   
    19     9    19 1   
    20    10    11 1   
    21    10    51 1   
    22    10    52 1   
    23    11    12 ar  
    24    11    16 ar  
    25    12    13 ar  
    26    12    53 1   
    27    13    14 ar  
    28    13    54 1   
    29    14    15 ar  
    30    14    55 1   
    31    15    16 ar  
    32    15    56 1   
    33    16    57 1   
    34    17    18 2   
    35    17    21 1   
    36    19    20 1   
    37    19    58 1   
    38    20    21 2   
    39    20    59 1   
    40    21    35 1   
    41    22    23 1   
    42    22    60 1   
    43    22    61 1   
    44    23    24 ar  
    45    23    28 ar  
    46    24    25 ar  
    47    24    62 1   
    48    25    26 ar  
    49    25    63 1   
    50    26    27 ar  
    51    26    64 1   
    52    27    28 ar  
    53    27    65 1   
    54    28    66 1   
    55    29    30 1   
    56    29    33 1   
    57    29    67 1   
    58    30    31 1   
    59    30    68 1   
    60    30    69 1   
    61    31    32 1   
    62    32    33 1   
    63    32    70 1   
    64    32    71 1   
    65    33    72 1   
    66    33    73 1   
    67    34    35 1   
    68    34    39 1   
    69    34    74 1   
    70    34    75 1   
    71    35    36 1   
    72    35    76 1   
    73    36    37 ar  
    74    36    40 ar  
    75    37    38 1   
    76    37    43 ar  
    77    38    39 1   
    78    38    44 2   
    79    39    77 1   
    80    40    41 ar  
    81    40    78 1   
    82    41    42 ar  
    83    41    79 1   
    84    42    43 ar  
    85    42    80 1   
    86    43    81 1   
@<TRIPOS>SUBSTRUCTURE
     1 L27         1 TEMP              0 ****  ****    0 ROOT
