@<TRIPOS>MOLECULE
molecule
   56    57     1     0     0
SMALL
bcc


@<TRIPOS>ATOM
      1 C15          0.0000     0.0000     0.0000 ca         1 L28      -0.206000
      2 C14          1.3820     0.0000     0.0000 ca         1 L28      -0.001000
      3 C12          1.3950    -0.0000     2.3960 ca         1 L28      -0.012000
      4 C4          -1.2690     0.5170     8.2030 cc         1 L28      -0.339600
      5 C3          -0.2980     0.8270     7.2230 cc         1 L28      -0.016300
      6 C11          0.0070     0.0050     2.4050 ca         1 L28      -0.003400
      7 C16         -0.6930     0.0050     1.1990 ca         1 L28       0.150100
      8 C13          2.0780     0.0000     1.1950 ca         1 L28      -0.321500
      9 C7          -0.7800     0.3800     6.0290 cd         1 L28      -0.165900
     10 C5          -2.3100    -0.1190     7.5550 cd         1 L28      -0.014600
     11 C8          -0.1000     0.4900     4.7330 c          1 L28       0.693700
     12 C26         -3.5680    -0.6370     8.2040 c3         1 L28      -0.048800
     13 C23          6.0090    -2.2180    -0.4770 c3         1 L28      -0.107600
     14 C25          6.0250    -2.2260     2.8180 c3         1 L28      -0.107600
     15 N6          -2.0140    -0.1930     6.2470 na         1 L28      -0.111100
     16 N10         -0.6880     0.0050     3.6200 ns         1 L28      -0.455100
     17 N21          4.3230    -1.5920     1.1810 n3         1 L28      -0.820500
     18 O28         -1.6090     1.8630    10.0770 o          1 L28      -0.391100
     19 O9           0.9930     1.0200     4.6620 o          1 L28      -0.560100
     20 O19          4.2370     0.5380    -0.0630 o          1 L28      -0.626800
     21 O20          4.2500     0.5310     2.4360 o          1 L28      -0.626800
     22 O17         -2.0530     0.0120     1.2020 oh         1 L28      -0.520100
     23 S18          3.8400    -0.0090     1.1860 sy         1 L28       1.424200
     24 N1          -0.6320    -0.0900    10.4840 nz         1 L28      -0.681400
     25 H1          -0.5410     0.0000    -0.9380 ha         1 L28       0.150000
     26 H2           1.9220    -0.0020    -0.9390 ha         1 L28       0.162000
     27 H3           1.9430    -0.0000     3.3310 ha         1 L28       0.186000
     28 H4          -3.9950     0.1360     8.8310 hc         1 L28       0.067700
     29 H5          -4.2810    -0.9160     7.4380 hc         1 L28       0.067700
     30 H6          -3.3310    -1.5030     8.8100 hc         1 L28       0.067700
     31 H7           2.3600     0.5220     8.8070 hc         1 L28       0.040700
     32 H8           1.7370    -0.5150     7.5160 hc         1 L28       0.040700
     33 H9           2.9740     0.6980     7.1570 hc         1 L28       0.040700
     34 H10          6.1010    -2.2030    -1.5560 hc         1 L28       0.045200
     35 H11          6.4660    -1.3270    -0.0630 hc         1 L28       0.045200
     36 H12          6.5090    -3.0950    -0.0840 hc         1 L28       0.045200
     37 H13          6.5420    -3.0840     2.4040 hc         1 L28       0.045200
     38 H14          6.1360    -2.2230     3.8960 hc         1 L28       0.045200
     39 H15          6.4490    -1.3170     2.4090 hc         1 L28       0.045200
     40 H16          1.2950     2.0790     6.5690 hc         1 L28       0.079700
     41 H17          0.9280     2.1990     8.2950 hc         1 L28       0.079700
     42 H18          3.9330    -1.8180    -0.8630 h1         1 L28       0.047950
     43 H19          4.2340    -3.3260     0.0120 h1         1 L28       0.047950
     44 H20          3.9530    -1.8300     3.2260 h1         1 L28       0.047950
     45 H21          4.2460    -3.3330     2.3400 h1         1 L28       0.047950
     46 H22         -2.5940    -0.6050     5.5430 hn         1 L28       0.324700
     47 H23         -1.6040    -0.3950     3.6720 hn         1 L28       0.324500
     48 H24         -2.3660     0.5050     0.4620 ho         1 L28       0.443000
     49 H25         -1.2920    -0.3280    11.1970 hn         1 L28       0.476800
     50 H26         -0.3850    -0.9120     9.9690 hn         1 L28       0.476800
     51 C27         -1.1830     0.8100     9.6450 c          1 L28       0.553700
     52 C22          4.5310    -2.2890    -0.0920 c3         1 L28       0.238300
     53 C1           2.0990     0.4780     7.7570 c3         1 L28      -0.091100
     54 C24          4.5430    -2.2960     2.4470 c3         1 L28       0.238300
     55 H131         0.1870     0.3040    10.9040 hn         1 L28       0.476800
     56 C2           1.0200     1.5200     7.4550 c3         1 L28      -0.035100
@<TRIPOS>BOND
     1    13    52 1
     2    12    10 1
     3    20    23 2
     4    15    10 1
     5    15     9 1
     6    10     4 2
     7    52    17 1
     8    19    11 2
     9    18    51 2
    10    17    23 1
    11    17    54 1
    12    23    21 2
    13    23     8 1
    14     9    11 1
    15     9     5 2
    16     4    51 1
    17     4     5 1
    18    11    16 1
    19    51    24 1
    20     3     8 ar
    21     3     6 ar
    22     5    56 1
    23    54    14 1
    24     8     2 ar
    25    16     6 1
    26     6     7 ar
    27    56    53 1
    28     2     1 ar
    29     7     1 ar
    30     7    22 1
    31     1    25 1
    32     2    26 1
    33     3    27 1
    34    12    28 1
    35    12    29 1
    36    12    30 1
    37    53    31 1
    38    53    32 1
    39    53    33 1
    40    13    34 1
    41    13    35 1
    42    13    36 1
    43    14    37 1
    44    14    38 1
    45    14    39 1
    46    56    40 1
    47    56    41 1
    48    52    42 1
    49    52    43 1
    50    54    44 1
    51    54    45 1
    52    15    46 1
    53    16    47 1
    54    22    48 1
    55    24    49 1
    56    24    50 1
    57    55    24 1
@<TRIPOS>SUBSTRUCTURE
     1 L28         1 TEMP              0 ****  ****    0 ROOT
