@<TRIPOS>MOLECULE
molecule
   75    74     1     0     0
SMALL
bcc


@<TRIPOS>ATOM
      1 O11          0.0000     0.0000     0.0000 o          1 L2C      -0.538000
      2 C11          1.2250     0.0000     0.0000 c          1 L2C       0.640100
      3 C12          2.0620     0.0000     1.2550 c3         1 L2C      -0.137400
      4 C13          1.2150    -0.0530     2.5230 c3         1 L2C      -0.074400
      5 C14          2.0670    -0.0720     3.7970 c3         1 L2C      -0.076400
      6 C15          1.1890    -0.1560     5.0480 c3         1 L2C      -0.077400
      7 C16          1.9900    -0.1910     6.3530 c3         1 L2C      -0.078400
      8 C17          1.1140    -0.3010     7.6020 c3         1 L2C      -0.077400
      9 C18          1.9590    -0.2580     8.8760 c3         1 L2C      -0.082400
     10 C19          1.0920    -0.3280    10.1220 c3         1 L2C      -0.090100
     11 O21         -0.5670    -3.7590    -2.5280 o          1 L2C      -0.519000
     12 C21          0.6390    -3.6180    -2.3770 c          1 L2C       0.637100
     13 C22          1.6330    -4.7430    -2.1920 c3         1 L2C      -0.136400
     14 C23          0.9800    -6.1240    -2.1510 c3         1 L2C      -0.074400
     15 C24          2.0030    -7.2500    -1.9740 c3         1 L2C      -0.078400
     16 C25          1.3220    -8.6200    -1.9650 c3         1 L2C      -0.077400
     17 C26          2.3450    -9.7490    -1.8220 c3         1 L2C      -0.076400
     18 C27          1.6640   -11.1190    -1.8470 c3         1 L2C      -0.076400
     19 C28          2.6300   -12.2860    -1.6140 c3         1 L2C      -0.077400
     20 C29          1.9970   -13.6790    -1.5410 c3         1 L2C      -0.074400
     21 C30          3.0060   -14.7920    -1.2480 c3         1 L2C      -0.076400
     22 C31          2.3840   -16.1920    -1.2630 c3         1 L2C      -0.081400
     23 C32          3.3850   -17.3060    -1.0010 c3         1 L2C      -0.088100
     24 C41          0.4850    -1.2570    -2.4450 c3         1 L2C       0.088400
     25 O41          1.3020    -2.4250    -2.3160 os         1 L2C      -0.424900
     26 C42          1.3520    -0.0070    -2.3600 c3         1 L2C       0.150100
     27 O42          2.0300    -0.0030    -1.1020 os         1 L2C      -0.395900
     28 C43          2.4040     0.0180    -3.4610 c3         1 L2C       0.145400
     29 O43          3.1630     1.2170    -3.3490 oh         1 L2C      -0.602800
     30 H121         2.7190    -0.8610     1.2370 hc         1 L2C       0.074700
     31 H122         2.6640     0.9000     1.2740 hc         1 L2C       0.074700
     32 H131         0.6020    -0.9460     2.4980 hc         1 L2C       0.054200
     33 H132         0.5670     0.8150     2.5480 hc         1 L2C       0.054200
     34 H141         2.7280    -0.9300     3.7690 hc         1 L2C       0.039200
     35 H142         2.6610     0.8320     3.8400 hc         1 L2C       0.039200
     36 H151         0.5860    -1.0540     4.9880 hc         1 L2C       0.040700
     37 H152         0.5310     0.7040     5.0680 hc         1 L2C       0.040700
     38 H161         2.6620    -1.0410     6.3250 hc         1 L2C       0.037700
     39 H162         2.5790     0.7150     6.4220 hc         1 L2C       0.037700
     40 H171         0.5670    -1.2360     7.5710 hc         1 L2C       0.040200
     41 H172         0.4100     0.5220     7.6160 hc         1 L2C       0.040200
     42 H181         2.5280     0.6640     8.8920 hc         1 L2C       0.038200
     43 H182         2.6450    -1.0970     8.8740 hc         1 L2C       0.038200
     44 H191         0.5200    -1.2480    10.1130 hc         1 L2C       0.033033
     45 H192         0.4150     0.5180    10.1400 hc         1 L2C       0.033033
     46 H193         1.7220    -0.3040    11.0030 hc         1 L2C       0.033033
     47 H221         2.1680    -4.5840    -1.2640 hc         1 L2C       0.072200
     48 H222         2.3410    -4.7180    -3.0110 hc         1 L2C       0.072200
     49 H231         0.4400    -6.2830    -3.0770 hc         1 L2C       0.054200
     50 H232         0.2780    -6.1550    -1.3270 hc         1 L2C       0.054200
     51 H241         2.7150    -7.2130    -2.7890 hc         1 L2C       0.039700
     52 H242         2.5280    -7.1080    -1.0370 hc         1 L2C       0.039700
     53 H251         0.6270    -8.6650    -1.1350 hc         1 L2C       0.043200
     54 H252         0.7760    -8.7510    -2.8910 hc         1 L2C       0.043200
     55 H261         2.8740    -9.6330    -0.8840 hc         1 L2C       0.039700
     56 H262         3.0540    -9.6910    -2.6390 hc         1 L2C       0.039700
     57 H271         0.9030   -11.1410    -1.0760 hc         1 L2C       0.038700
     58 H272         1.1870   -11.2510    -2.8100 hc         1 L2C       0.038700
     59 H281         3.3540   -12.2870    -2.4190 hc         1 L2C       0.035700
     60 H282         3.1560   -12.1060    -0.6850 hc         1 L2C       0.035700
     61 H291         1.5140   -13.8910    -2.4870 hc         1 L2C       0.037700
     62 H292         1.2460   -13.6780    -0.7600 hc         1 L2C       0.037700
     63 H301         3.7920   -14.7530    -1.9920 hc         1 L2C       0.037700
     64 H302         3.4410   -14.6170    -0.2710 hc         1 L2C       0.037700
     65 H311         1.9290   -16.3570    -2.2330 hc         1 L2C       0.036700
     66 H312         1.6120   -16.2360    -0.5060 hc         1 L2C       0.036700
     67 H321         2.8750   -18.2620    -1.0220 hc         1 L2C       0.033367
     68 H322         4.1520   -17.2900    -1.7660 hc         1 L2C       0.033367
     69 H323         3.8410   -17.1610    -0.0290 hc         1 L2C       0.033367
     70 H411        -0.2480    -1.2410    -1.6480 h1         1 L2C       0.074200
     71 H412        -0.0240    -1.2780    -3.4010 h1         1 L2C       0.074200
     72 H42          0.7260     0.8740    -2.4370 h1         1 L2C       0.079700
     73 H431         1.9180    -0.0150    -4.4290 h1         1 L2C       0.038700
     74 H432         3.0600    -0.8380    -3.3560 h1         1 L2C       0.038700
     75 HO43         3.7430     1.2930    -4.0890 ho         1 L2C       0.406000
@<TRIPOS>BOND
     1     1     2 2
     2     2     3 1
     3     2    27 1
     4     3     4 1
     5     3    30 1
     6     3    31 1
     7     4     5 1
     8     4    32 1
     9     4    33 1
    10     5     6 1
    11     5    34 1
    12     5    35 1
    13     6     7 1
    14     6    36 1
    15     6    37 1
    16     7     8 1
    17     7    38 1
    18     7    39 1
    19     8     9 1
    20     8    40 1
    21     8    41 1
    22     9    10 1
    23     9    42 1
    24     9    43 1
    25    10    44 1
    26    10    45 1
    27    10    46 1
    28    11    12 2
    29    12    13 1
    30    12    25 1
    31    13    14 1
    32    13    47 1
    33    13    48 1
    34    14    15 1
    35    14    49 1
    36    14    50 1
    37    15    16 1
    38    15    51 1
    39    15    52 1
    40    16    17 1
    41    16    53 1
    42    16    54 1
    43    17    18 1
    44    17    55 1
    45    17    56 1
    46    18    19 1
    47    18    57 1
    48    18    58 1
    49    19    20 1
    50    19    59 1
    51    19    60 1
    52    20    21 1
    53    20    61 1
    54    20    62 1
    55    21    22 1
    56    21    63 1
    57    21    64 1
    58    22    23 1
    59    22    65 1
    60    22    66 1
    61    23    67 1
    62    23    68 1
    63    23    69 1
    64    24    25 1
    65    24    26 1
    66    24    70 1
    67    24    71 1
    68    26    27 1
    69    26    28 1
    70    26    72 1
    71    28    29 1
    72    28    73 1
    73    28    74 1
    74    29    75 1
@<TRIPOS>SUBSTRUCTURE
     1 L2C         1 TEMP              0 ****  ****    0 ROOT
