@<TRIPOS>MOLECULE
L2C
   75    74     1     0     0
SMALL
bcc


@<TRIPOS>ATOM
      1 O11         0.1780    0.6670   -0.2080 o         1 L2C     -0.538000
      2 C11         1.3440    0.3120   -0.0360 c         1 L2C      0.636100
      3 C12         2.1330    0.2350    1.2340 c3        1 L2C     -0.127400
      4 C13         1.2600   -0.2090    2.3890 c3        1 L2C     -0.079400
      5 C14         2.0260   -0.1500    3.6930 c3        1 L2C     -0.078400
      6 C15         1.1650   -0.6100    4.8500 c3        1 L2C     -0.079400
      7 C16         1.9250   -0.5480    6.1580 c3        1 L2C     -0.079400
      8 C17         1.0640   -1.0070    7.3150 c3        1 L2C     -0.079400
      9 C18         1.8230   -0.9450    8.6240 c3        1 L2C     -0.080400
     10 C19         0.9690   -1.4000    9.7790 c3        1 L2C     -0.093100
     11 O21        -0.5110   -3.5570   -2.9330 o         1 L2C     -0.537000
     12 C21         0.7180   -3.5660   -2.8560 c         1 L2C      0.631100
     13 C22         1.6650   -4.7230   -2.9220 c3        1 L2C     -0.126400
     14 C23         1.0730   -5.9490   -2.2600 c3        1 L2C     -0.079400
     15 C24         1.9720   -7.1510   -2.4530 c3        1 L2C     -0.078400
     16 C25         1.3940   -8.3760   -1.7790 c3        1 L2C     -0.079400
     17 C26         2.2870   -9.5820   -1.9760 c3        1 L2C     -0.079400
     18 C27         1.7090  -10.8090   -1.3020 c3        1 L2C     -0.079400
     19 C28         2.6010  -12.0150   -1.5000 c3        1 L2C     -0.078400
     20 C29         2.0230  -13.2420   -0.8260 c3        1 L2C     -0.079400
     21 C30         2.9150  -14.4490   -1.0240 c3        1 L2C     -0.079400
     22 C31         2.3380  -15.6760   -0.3520 c3        1 L2C     -0.080400
     23 C32         3.2230  -16.8810   -0.5450 c3        1 L2C     -0.092100
     24 C41         0.5380   -1.1960   -2.6450 c3        1 L2C      0.116400
     25 O41         1.3660   -2.3670   -2.7090 os        1 L2C     -0.443900
     26 C42         1.4510    0.0040   -2.4200 c3        1 L2C      0.108100
     27 O42         2.0830   -0.0600   -1.1300 os        1 L2C     -0.447900
     28 C43         2.6060    0.0480   -3.4250 c3        1 L2C      0.135400
     29 O43         3.3730    1.2220   -3.2720 oh        1 L2C     -0.595800
     30 H121        2.5490    1.2600    1.4320 hc        1 L2C      0.079200
     31 H122        2.9980   -0.4670    1.1000 hc        1 L2C      0.079200
     32 H131        0.9010   -1.2560    2.2070 hc        1 L2C      0.058700
     33 H132        0.3520    0.4480    2.4460 hc        1 L2C      0.058700
     34 H141        2.3750    0.9000    3.8790 hc        1 L2C      0.041200
     35 H142        2.9400   -0.7970    3.6240 hc        1 L2C      0.041200
     36 H151        0.8170   -1.6610    4.6670 hc        1 L2C      0.043200
     37 H152        0.2480    0.0340    4.9160 hc        1 L2C      0.043200
     38 H161        2.2730    0.5030    6.3410 hc        1 L2C      0.039200
     39 H162        2.8410   -1.1920    6.0920 hc        1 L2C      0.039200
     40 H171        0.1480   -0.3620    7.3810 hc        1 L2C      0.040700
     41 H172        0.7160   -2.0570    7.1320 hc        1 L2C      0.040700
     42 H181        2.7390   -1.5890    8.5550 hc        1 L2C      0.038200
     43 H182        2.1710    0.1060    8.8040 hc        1 L2C      0.038200
     44 H191        0.6320   -2.4540    9.6290 hc        1 L2C      0.033033
     45 H192        1.5470   -1.3470   10.7330 hc        1 L2C      0.033033
     46 H193        0.0630   -0.7540    9.8790 hc        1 L2C      0.033033
     47 H221        2.6370   -4.4430   -2.4380 hc        1 L2C      0.078200
     48 H222        1.8690   -4.9270   -4.0080 hc        1 L2C      0.078200
     49 H231        0.9320   -5.7530   -1.1640 hc        1 L2C      0.058200
     50 H232        0.0570   -6.1530   -2.6920 hc        1 L2C      0.058200
     51 H241        2.1020   -7.3520   -3.5500 hc        1 L2C      0.041200
     52 H242        2.9890   -6.9340   -2.0330 hc        1 L2C      0.041200
     53 H251        1.2660   -8.1770   -0.6820 hc        1 L2C      0.042700
     54 H252        0.3740   -8.5900   -2.1960 hc        1 L2C      0.042700
     55 H261        2.4140   -9.7810   -3.0720 hc        1 L2C      0.039700
     56 H262        3.3060   -9.3690   -1.5580 hc        1 L2C      0.039700
     57 H271        0.6900  -11.0220   -1.7190 hc        1 L2C      0.040200
     58 H272        1.5820  -10.6100   -0.2050 hc        1 L2C      0.040200
     59 H281        2.7280  -12.2130   -2.5960 hc        1 L2C      0.039700
     60 H282        3.6200  -11.8020   -1.0820 hc        1 L2C      0.039700
     61 H291        1.0040  -13.4550   -1.2440 hc        1 L2C      0.039700
     62 H292        1.8960  -13.0440    0.2710 hc        1 L2C      0.039700
     63 H301        3.9340  -14.2360   -0.6060 hc        1 L2C      0.039700
     64 H302        3.0420  -14.6470   -2.1210 hc        1 L2C      0.039700
     65 H311        1.3180  -15.8860   -0.7700 hc        1 L2C      0.038700
     66 H312        2.2090  -15.4760    0.7450 hc        1 L2C      0.038700
     67 H321        4.2360  -16.6990   -0.1130 hc        1 L2C      0.032700
     68 H322        2.7790  -17.7730   -0.0430 hc        1 L2C      0.032700
     69 H323        3.3430  -17.1110   -1.6320 hc        1 L2C      0.032700
     70 H411       -0.0170   -1.0900   -3.6130 h1        1 L2C      0.071200
     71 H412       -0.1910   -1.3030   -1.7990 h1        1 L2C      0.071200
     72 H42         0.8280    0.9400   -2.4810 h1        1 L2C      0.089700
     73 H431        3.2470   -0.8650   -3.3080 h1        1 L2C      0.064700
     74 H432        2.1910    0.0990   -4.4660 h1        1 L2C      0.064700
     75 HO43        3.7480    1.1990   -2.3810 ho        1 L2C      0.409000
@<TRIPOS>BOND
     1    1    2 2   
     2    2    3 1   
     3    2   27 1   
     4    3    4 1   
     5    3   30 1   
     6    3   31 1   
     7    4    5 1   
     8    4   32 1   
     9    4   33 1   
    10    5    6 1   
    11    5   34 1   
    12    5   35 1   
    13    6    7 1   
    14    6   36 1   
    15    6   37 1   
    16    7    8 1   
    17    7   38 1   
    18    7   39 1   
    19    8    9 1   
    20    8   40 1   
    21    8   41 1   
    22    9   10 1   
    23    9   42 1   
    24    9   43 1   
    25   10   44 1   
    26   10   45 1   
    27   10   46 1   
    28   11   12 2   
    29   12   13 1   
    30   12   25 1   
    31   13   14 1   
    32   13   47 1   
    33   13   48 1   
    34   14   15 1   
    35   14   49 1   
    36   14   50 1   
    37   15   16 1   
    38   15   51 1   
    39   15   52 1   
    40   16   17 1   
    41   16   53 1   
    42   16   54 1   
    43   17   18 1   
    44   17   55 1   
    45   17   56 1   
    46   18   19 1   
    47   18   57 1   
    48   18   58 1   
    49   19   20 1   
    50   19   59 1   
    51   19   60 1   
    52   20   21 1   
    53   20   61 1   
    54   20   62 1   
    55   21   22 1   
    56   21   63 1   
    57   21   64 1   
    58   22   23 1   
    59   22   65 1   
    60   22   66 1   
    61   23   67 1   
    62   23   68 1   
    63   23   69 1   
    64   24   25 1   
    65   24   26 1   
    66   24   70 1   
    67   24   71 1   
    68   26   27 1   
    69   26   28 1   
    70   26   72 1   
    71   28   29 1   
    72   28   73 1   
    73   28   74 1   
    74   29   75 1   
@<TRIPOS>SUBSTRUCTURE
     1 L2C         1 TEMP              0 ****  ****    0 ROOT
