@<TRIPOS>MOLECULE
L2E
   59    61     1     0     0
SMALL
bcc


@<TRIPOS>ATOM
      1 CAA        -0.3500   -0.5650   -0.4630 c3        1 L2E     -0.057400
      2 CAT         1.0930   -0.2540   -0.3270 c2        1 L2E     -0.127400
      3 CAB         1.4490    0.7350    0.7190 c3        1 L2E     -0.057400
      4 CAI         2.0200   -0.8360   -1.1060 c2        1 L2E     -0.175200
      5 CAO         3.4690   -0.5470   -1.0020 c3        1 L2E     -0.043200
      6 CAQ         4.2930   -1.4340   -1.9170 c3        1 L2E     -0.040200
      7 CAU         5.7480   -1.1130   -1.8290 c2        1 L2E     -0.113400
      8 CAC         6.1910    0.1030   -2.5530 c3        1 L2E     -0.064900
      9 CAJ         6.5860   -1.9070   -1.1440 c2        1 L2E     -0.169200
     10 CAP         8.0540   -1.7090   -1.0280 c3        1 L2E      0.020100
     11 CBC         8.4600   -1.3960    0.3700 ca        1 L2E     -0.179300
     12 CAZ         8.7450   -0.0710    0.7710 ca        1 L2E      0.266100
     13 OAH         8.6210    0.8630   -0.2160 oh        1 L2E     -0.496100
     14 CAY         8.5770   -2.4150    1.3300 ca        1 L2E      0.217100
     15 OAG         8.2950   -3.6920    0.9150 oh        1 L2E     -0.483100
     16 CAN         8.9790   -2.1520    2.6490 ca        1 L2E     -0.298000
     17 CBB         9.2490   -0.8320    3.0140 ca        1 L2E      0.236100
     18 OAS         9.6040   -0.6610    4.3340 os        1 L2E     -0.321900
     19 CBD         9.1270    0.2400    2.1000 ca        1 L2E     -0.361600
     20 CAV         9.3570    1.6050    2.5650 c         1 L2E      0.604700
     21 OAD         9.3380    2.6020    1.8250 o         1 L2E     -0.572100
     22 CAR         9.5900    1.7630    4.0420 c3        1 L2E     -0.207400
     23 CBE        10.3220    0.5610    4.6170 c3        1 L2E      0.200400
     24 CBA        10.4430    0.6550    6.1080 ca        1 L2E     -0.095300
     25 CAM        11.6330    1.1430    6.6560 ca        1 L2E     -0.122000
     26 CAX        11.7560    1.2600    8.0450 ca        1 L2E      0.110100
     27 OAF        12.9410    1.7540    8.5340 oh        1 L2E     -0.492100
     28 CAW        10.6830    0.8750    8.8790 ca        1 L2E      0.051100
     29 OAE        10.8860    1.0200   10.2350 oh        1 L2E     -0.514100
     30 CAK         9.5010    0.3790    8.3230 ca        1 L2E     -0.173000
     31 CAL         9.3850    0.2730    6.9380 ca        1 L2E     -0.099000
     32 H1         -0.5350   -1.3350   -1.2510 hc        1 L2E      0.039533
     33 H2         -0.7520   -0.9500    0.5080 hc        1 L2E      0.039533
     34 H3         -0.9180    0.3600   -0.7330 hc        1 L2E      0.039533
     35 H5          2.0550    0.2440    1.5230 hc        1 L2E      0.039533
     36 H6          0.5370    1.1800    1.1860 hc        1 L2E      0.039533
     37 H7          2.0640    1.5610    0.2820 hc        1 L2E      0.039533
     38 H8          1.7240   -1.5690   -1.8730 ha        1 L2E      0.121000
     39 H10         3.6540    0.5330   -1.2580 hc        1 L2E      0.051200
     40 H11         3.8080   -0.6880    0.0610 hc        1 L2E      0.051200
     41 H12         3.9510   -1.2970   -2.9780 hc        1 L2E      0.044700
     42 H13         4.1140   -2.5090   -1.6470 hc        1 L2E      0.044700
     43 H14         6.8900    0.7090   -1.9210 hc        1 L2E      0.044700
     44 H15         5.3190    0.7470   -2.8290 hc        1 L2E      0.044700
     45 H16         6.7270   -0.1810   -3.4930 hc        1 L2E      0.044700
     46 H17         6.2090   -2.7960   -0.6100 ha        1 L2E      0.124000
     47 H18         8.5630   -2.6630   -1.3450 hc        1 L2E      0.063700
     48 H19         8.4090   -0.8940   -1.7160 hc        1 L2E      0.063700
     49 H20         8.8480    1.7480    0.1160 ho        1 L2E      0.463000
     50 H21         8.4410   -4.2910    1.6630 ho        1 L2E      0.427000
     51 H22         9.0810   -2.9580    3.3870 ha        1 L2E      0.157000
     52 H25        10.1820    2.6940    4.2410 hc        1 L2E      0.093200
     53 H26         8.5890    1.8780    4.5400 hc        1 L2E      0.093200
     54 H27        11.3420    0.4670    4.1450 h1        1 L2E      0.068700
     55 H28        12.4790    1.4390    6.0170 ha        1 L2E      0.156000
     56 H29        12.8850    1.7650    9.5020 ho        1 L2E      0.439000
     57 H30        10.0920    0.7040   10.6900 ho        1 L2E      0.432000
     58 H31         8.6700    0.0740    8.9740 ha        1 L2E      0.140000
     59 H32         8.4610   -0.1260    6.4910 ha        1 L2E      0.150000
@<TRIPOS>BOND
     1    1    2 1   
     2    1   32 1   
     3    1   33 1   
     4    1   34 1   
     5    2    3 1   
     6    2    4 2   
     7    3   35 1   
     8    3   36 1   
     9    3   37 1   
    10    4    5 1   
    11    4   38 1   
    12    5    6 1   
    13    5   39 1   
    14    5   40 1   
    15    6    7 1   
    16    6   41 1   
    17    6   42 1   
    18    7    8 1   
    19    7    9 2   
    20    8   43 1   
    21    8   44 1   
    22    8   45 1   
    23    9   10 1   
    24    9   46 1   
    25   10   11 1   
    26   10   47 1   
    27   10   48 1   
    28   11   12 ar  
    29   11   14 ar  
    30   12   13 1   
    31   12   19 ar  
    32   13   49 1   
    33   14   15 1   
    34   14   16 ar  
    35   15   50 1   
    36   16   17 ar  
    37   16   51 1   
    38   17   18 1   
    39   17   19 ar  
    40   18   23 1   
    41   19   20 1   
    42   20   21 2   
    43   20   22 1   
    44   22   23 1   
    45   22   52 1   
    46   22   53 1   
    47   23   24 1   
    48   23   54 1   
    49   24   25 ar  
    50   24   31 ar  
    51   25   26 ar  
    52   25   55 1   
    53   26   27 1   
    54   26   28 ar  
    55   27   56 1   
    56   28   29 1   
    57   28   30 ar  
    58   29   57 1   
    59   30   31 ar  
    60   30   58 1   
    61   31   59 1   
@<TRIPOS>SUBSTRUCTURE
     1 L2E         1 TEMP              0 ****  ****    0 ROOT
