@<TRIPOS>MOLECULE
molecule
   59    61     1     0     0
SMALL
bcc


@<TRIPOS>ATOM
      1 CAA          0.0000     0.0000     0.0000 c3         1 L2E      -0.051400
      2 CAT          1.5070     0.0000     0.0000 c2         1 L2E      -0.132400
      3 CAB          2.2600     0.0000     1.3060 c3         1 L2E      -0.051400
      4 CAI          2.1620    -0.0000    -1.1340 c2         1 L2E      -0.184200
      5 CAO          3.6690     0.0010    -1.1340 c3         1 L2E      -0.045200
      6 CAQ          4.1800    -1.1810    -1.9610 c3         1 L2E      -0.033200
      7 CAU          5.6870    -1.1810    -1.9600 c2         1 L2E      -0.122400
      8 CAC          6.4400    -0.3410    -2.9600 c3         1 L2E      -0.054900
      9 CAJ          6.3420    -1.9100    -1.0920 c2         1 L2E      -0.172200
     10 CAP          7.8440    -1.8220    -1.0140 c3         1 L2E       0.015100
     11 CBC          8.2570    -1.5090     0.4010 ca         1 L2E      -0.163300
     12 CAZ          8.3840    -0.1920     0.8090 ca         1 L2E       0.229100
     13 OAH          8.1370     0.8190    -0.0600 oh         1 L2E      -0.498100
     14 CAY          8.5030    -2.5410     1.2970 ca         1 L2E       0.194100
     15 OAG          8.3740    -3.8290     0.8900 oh         1 L2E      -0.499100
     16 CAN          8.8810    -2.2690     2.6070 ca         1 L2E      -0.251000
     17 CBB          9.0180    -0.9600     3.0340 ca         1 L2E       0.219100
     18 OAS          9.3780    -0.7020     4.3120 os         1 L2E      -0.323900
     19 CBD          8.7710     0.0880     2.1290 ca         1 L2E      -0.322600
     20 CAV          8.9280     1.4740     2.5840 c          1 L2E       0.588700
     21 OAD          8.9430     2.4030     1.8030 o          1 L2E      -0.521100
     22 CAR          9.0690     1.6860     4.0800 c3         1 L2E      -0.206400
     23 CBE          9.9750     0.5590     4.6140 c3         1 L2E       0.208400
     24 CBA         10.1250     0.7000     6.1060 ca         1 L2E      -0.093300
     25 CAM         11.2130     1.3740     6.6300 ca         1 L2E      -0.134000
     26 CAX         11.3530     1.5030     8.0020 ca         1 L2E       0.090100
     27 OAF         12.4220     2.1660     8.5190 oh         1 L2E      -0.509100
     28 CAW         10.3950     0.9540     8.8510 ca         1 L2E       0.099100
     29 OAE         10.5290     1.0780    10.1990 oh         1 L2E      -0.511100
     30 CAK          9.3080     0.2800     8.3200 ca         1 L2E      -0.156000
     31 CAL          9.1720     0.1590     6.9500 ca         1 L2E      -0.094000
     32 H1          -0.3610     0.3160     0.9710 hc         1 L2E       0.040200
     33 H2          -0.3610     0.6830    -0.7590 hc         1 L2E       0.040200
     34 H3          -0.3610    -0.9990    -0.2120 hc         1 L2E       0.040200
     35 H5           2.8270    -0.9190     1.3960 hc         1 L2E       0.040200
     36 H6           1.5580     0.0740     2.1270 hc         1 L2E       0.040200
     37 H7           2.9370     0.8450     1.3320 hc         1 L2E       0.040200
     38 H8           1.6210    -0.0000    -2.0720 ha         1 L2E       0.122000
     39 H10          4.0300    -0.0870    -0.1160 hc         1 L2E       0.054200
     40 H11          4.0300     0.9270    -1.5660 hc         1 L2E       0.054200
     41 H12          3.8190    -2.1070    -1.5290 hc         1 L2E       0.045700
     42 H13          3.8200    -1.0920    -2.9780 hc         1 L2E       0.045700
     43 H14          7.2310    -0.9320    -3.4050 hc         1 L2E       0.041700
     44 H15          6.8710     0.5180    -2.4590 hc         1 L2E       0.041700
     45 H16          5.7610    -0.0050    -3.7340 hc         1 L2E       0.041700
     46 H17          5.7990    -2.5140    -0.3740 ha         1 L2E       0.131000
     47 H18          8.1940    -1.0380    -1.6740 hc         1 L2E       0.058700
     48 H19          8.2770    -2.7680    -1.3150 hc         1 L2E       0.058700
     49 H20          8.9520     1.2110    -0.3260 ho         1 L2E       0.439000
     50 H21          9.1530    -4.3090     1.1150 ho         1 L2E       0.427000
     51 H22          9.0690    -3.0850     3.2950 ha         1 L2E       0.154000
     52 H25          9.5270     2.6490     4.2740 hc         1 L2E       0.088200
     53 H26          8.0960     1.6310     4.5540 hc         1 L2E       0.088200
     54 H27         10.9460     0.6220     4.1390 h1         1 L2E       0.060700
     55 H28         11.9790     1.7610     5.9690 ha         1 L2E       0.144000
     56 H29         13.1700     1.5920     8.5360 ho         1 L2E       0.424000
     57 H30          9.9090     1.7130    10.5190 ho         1 L2E       0.426000
     58 H31          8.5610    -0.1460     8.9780 ha         1 L2E       0.146000
     59 H32          8.3210    -0.3680     6.5360 ha         1 L2E       0.150000
@<TRIPOS>BOND
     1    13    12 1
     2    21    20 2
     3     8     7 1
     4     7     6 1
     5     7     9 2
     6    10     9 1
     7    10    11 1
     8     6     5 1
     9     3     2 1
    10     5     4 1
    11    12    11 ar
    12    12    19 ar
    13    20    19 1
    14    20    22 1
    15    11    14 ar
    16    19    17 ar
    17    22    23 1
    18     2     4 2
    19     2     1 1
    20    14    15 1
    21    14    16 ar
    22    23    18 1
    23    23    24 1
    24    17    16 ar
    25    17    18 1
    26    31    24 ar
    27    31    30 ar
    28    24    25 ar
    29    30    28 ar
    30    25    26 ar
    31    28    26 ar
    32    28    29 1
    33    26    27 1
    34     1    32 1
    35     1    33 1
    36     1    34 1
    37     3    35 1
    38     3    36 1
    39     3    37 1
    40     4    38 1
    41     5    39 1
    42     5    40 1
    43     6    41 1
    44     6    42 1
    45     8    43 1
    46     8    44 1
    47     8    45 1
    48     9    46 1
    49    10    47 1
    50    10    48 1
    51    13    49 1
    52    15    50 1
    53    16    51 1
    54    22    52 1
    55    22    53 1
    56    23    54 1
    57    25    55 1
    58    27    56 1
    59    29    57 1
    60    30    58 1
    61    31    59 1
@<TRIPOS>SUBSTRUCTURE
     1 L2E         1 TEMP              0 ****  ****    0 ROOT
