@<TRIPOS>MOLECULE
molecule
   85    91     1     0     0
SMALL
bcc


@<TRIPOS>ATOM
      1 C1           0.0000     0.0000     0.0000 cc         1 L2G       0.450500
      2 C2           1.4620     0.0000     0.0000 ca         1 L2G      -0.496500
      3 C3          -0.8780     0.0010    -1.1940 ca         1 L2G      -0.085900
      4 N1          -0.3910    -0.0070     1.2530 nd         1 L2G      -0.494100
      5 C4           1.8620     0.0000     1.3500 ca         1 L2G       0.513800
      6 C5           2.4560     0.0140    -0.9940 ca         1 L2G       0.788200
      7 C6          -1.9690     0.8670    -1.2570 ca         1 L2G      -0.174000
      8 C7          -0.6140    -0.8630    -2.2560 ca         1 L2G      -0.105000
      9 N2           0.7220    -0.0070     2.0990 na         1 L2G      -0.028800
     10 N3           3.1640     0.0030     1.6320 nb         1 L2G      -0.780000
     11 N4           3.7300     0.0170    -0.6120 nb         1 L2G      -0.800000
     12 N5           2.1170     0.0180    -2.3320 nv         1 L2G      -1.073500
     13 C8          -2.7860     0.8670    -2.3730 ca         1 L2G       0.067100
     14 C9          -1.4310    -0.8620    -3.3670 ca         1 L2G      -0.129000
     15 C10          0.6730    -0.0150     3.5630 c3         1 L2G       0.091000
     16 C11          4.0590     0.0120     0.6680 ca         1 L2G       0.731900
     17 C12         -2.5200    -0.0030    -3.4300 ca         1 L2G       0.047600
     18 O1          -3.8510     1.7100    -2.4370 os         1 L2G      -0.316900
     19 C13         -0.0700     1.2300     4.0550 c3         1 L2G      -0.094400
     20 C14         -0.0610    -1.2690     4.0420 c3         1 L2G      -0.094400
     21 N6          -3.3470    -0.0040    -4.5580 ns         1 L2G      -0.471100
     22 C15         -3.8600     2.4560    -1.2180 c3         1 L2G       0.108700
     23 C16         -0.1220     1.2220     5.5840 c3         1 L2G      -0.077400
     24 C17         -0.1130    -1.2760     5.5720 c3         1 L2G      -0.077400
     25 C18         -3.3520    -1.0650    -5.3890 c          1 L2G       0.698300
     26 C19         -0.8550    -0.0320     6.0620 c3         1 L2G       0.141500
     27 C20         -4.1090    -1.0100    -6.6480 cc         1 L2G      -0.140300
     28 O2          -2.7280    -2.0690    -5.0980 o          1 L2G      -0.587100
     29 N7          -0.9060    -0.0400     7.5310 n3         1 L2G      -0.669600
     30 N8          -4.7330     0.1110    -7.1580 na         1 L2G      -0.067400
     31 C21         -4.3130    -2.0560    -7.4920 cd         1 L2G      -0.098200
     32 C22         -1.7210    -1.1960     7.9190 c3         1 L2G       0.113300
     33 C23         -1.6350     1.1680     7.9340 c3         1 L2G       0.113300
     34 C24         -5.3360    -0.2200    -8.3500 ca         1 L2G      -0.022200
     35 C25         -4.7490     1.4380    -6.5350 c3         1 L2G       0.027600
     36 C26         -5.0870    -1.5870    -8.5800 ca         1 L2G      -0.120800
     37 C27         -1.7970    -1.2810     9.4470 c3         1 L2G       0.109000
     38 C28         -1.7050     1.2380     9.4620 c3         1 L2G       0.109000
     39 C29         -6.0840     0.5050    -9.2730 ca         1 L2G      -0.149000
     40 C30         -5.5950    -2.1990    -9.7340 ca         1 L2G      -0.066000
     41 N9          -2.3200    -0.0030     9.9580 n          1 L2G      -0.499800
     42 C31         -6.5730    -0.1200   -10.3990 ca         1 L2G      -0.095000
     43 C32         -6.3260    -1.4680   -10.6240 ca         1 L2G      -0.160000
     44 C33         -3.3300     0.0280    10.8510 c          1 L2G       0.663100
     45 C34         -3.9310     1.3470    11.2610 c3         1 L2G      -0.170100
     46 O3          -3.7540    -1.0060    11.3220 o          1 L2G      -0.610100
     47 H6          -2.1730     1.5420    -0.4350 ha         1 L2G       0.155000
     48 H7           0.2360    -1.5340    -2.2100 ha         1 L2G       0.146000
     49 H5N1         1.8250     0.8680    -2.7710 hn         1 L2G       0.445300
     50 H5N2         2.2270    -0.8140    -2.8780 hn         1 L2G       0.445300
     51 H9          -1.2250    -1.5350    -4.1900 ha         1 L2G       0.189000
     52 H10          1.6800    -0.0130     3.9630 h1         1 L2G       0.091700
     53 H11          5.1090     0.0150     0.9340 h5         1 L2G       0.062100
     54 H131        -1.0790     1.2260     3.6610 hc         1 L2G       0.058700
     55 H132         0.4520     2.1170     3.7170 hc         1 L2G       0.058700
     56 H141        -1.0700    -1.2680     3.6480 hc         1 L2G       0.058700
     57 H142         0.4680    -2.1490     3.6960 hc         1 L2G       0.058700
     58 HA          -4.0000     0.7410    -4.6980 hn         1 L2G       0.339500
     59 H151        -3.9550     1.7780    -0.3790 h1         1 L2G       0.046700
     60 H152        -4.6960     3.1450    -1.2230 h1         1 L2G       0.046700
     61 H153        -2.9350     3.0130    -1.1290 h1         1 L2G       0.046700
     62 H161         0.8870     1.2210     5.9790 hc         1 L2G       0.054950
     63 H162        -0.6500     2.1020     5.9310 hc         1 L2G       0.054950
     64 H171        -0.6340    -2.1640     5.9090 hc         1 L2G       0.054950
     65 H172         0.8960    -1.2720     5.9660 hc         1 L2G       0.054950
     66 H19         -1.8620    -0.0340     5.6620 h1         1 L2G       0.034700
     67 H21         -3.8780    -3.0440    -7.3980 ha         1 L2G       0.172000
     68 H221        -2.7200    -1.0840     7.5160 h1         1 L2G       0.047200
     69 H222        -1.2690    -2.1010     7.5320 h1         1 L2G       0.047200
     70 H231        -2.6390     1.1330     7.5290 h1         1 L2G       0.047200
     71 H232        -1.1180     2.0420     7.5570 h1         1 L2G       0.047200
     72 H251        -3.7370     1.7270    -6.2780 h1         1 L2G       0.056367
     73 H252        -5.3550     1.4080    -5.6380 h1         1 L2G       0.056367
     74 H253        -5.1650     2.1580    -7.2290 h1         1 L2G       0.056367
     75 H271        -0.8070    -1.4560     9.8510 h1         1 L2G       0.061950
     76 H272        -2.4610    -2.0870     9.7340 h1         1 L2G       0.061950
     77 H281        -0.7050     1.3360     9.8680 h1         1 L2G       0.061950
     78 H282        -2.3090     2.0870     9.7600 h1         1 L2G       0.061950
     79 H29         -6.2810     1.5570    -9.1060 ha         1 L2G       0.126000
     80 H30         -5.4080    -3.2500    -9.9190 ha         1 L2G       0.134000
     81 H31         -7.1550     0.4460   -11.1160 ha         1 L2G       0.132000
     82 H32         -6.7180    -1.9430   -11.5150 ha         1 L2G       0.131000
     83 H341        -4.6910     1.1790    12.0140 hc         1 L2G       0.059700
     84 H342        -3.1570     1.9870    11.6660 hc         1 L2G       0.059700
     85 H343        -4.3780     1.8240    10.3970 hc         1 L2G       0.059700
@<TRIPOS>BOND
     1     1     2 1
     2     1     3 1
     3     1     4 2
     4     2     5 ar
     5     2     6 ar
     6     3     7 ar
     7     3     8 ar
     8     4     9 1
     9     5     9 1
    10     5    10 ar
    11     6    11 ar
    12     6    12 1
    13     7    13 ar
    14     7    47 1
    15     8    14 ar
    16     8    48 1
    17     9    15 1
    18    10    16 ar
    19    11    16 ar
    20    12    49 1
    21    12    50 1
    22    13    17 ar
    23    13    18 1
    24    14    17 ar
    25    14    51 1
    26    15    19 1
    27    15    20 1
    28    15    52 1
    29    16    53 1
    30    17    21 1
    31    18    22 1
    32    19    23 1
    33    19    54 1
    34    19    55 1
    35    20    24 1
    36    20    56 1
    37    20    57 1
    38    21    25 1
    39    21    58 1
    40    22    59 1
    41    22    60 1
    42    22    61 1
    43    23    26 1
    44    23    62 1
    45    23    63 1
    46    24    26 1
    47    24    64 1
    48    24    65 1
    49    25    27 1
    50    25    28 2
    51    26    29 1
    52    26    66 1
    53    27    30 1
    54    27    31 2
    55    29    32 1
    56    29    33 1
    57    30    34 1
    58    30    35 1
    59    31    36 1
    60    31    67 1
    61    32    37 1
    62    32    68 1
    63    32    69 1
    64    33    38 1
    65    33    70 1
    66    33    71 1
    67    34    36 ar
    68    34    39 ar
    69    35    72 1
    70    35    73 1
    71    35    74 1
    72    36    40 ar
    73    37    41 1
    74    37    75 1
    75    37    76 1
    76    38    41 1
    77    38    77 1
    78    38    78 1
    79    39    42 ar
    80    39    79 1
    81    40    43 ar
    82    40    80 1
    83    41    44 1
    84    42    43 ar
    85    42    81 1
    86    43    82 1
    87    44    45 1
    88    44    46 2
    89    45    83 1
    90    45    84 1
    91    45    85 1
@<TRIPOS>SUBSTRUCTURE
     1 L2G         1 TEMP              0 ****  ****    0 ROOT
