@<TRIPOS>MOLECULE
L2H
   88    90     1     0     0
SMALL
bcc


@<TRIPOS>ATOM
      1 C32        25.2990   30.4320   -1.3720 c2        1 L2H     -0.063000
      2 C1       -238.2830 -315.2620    6.4440 c3        1 L2H     -0.204000
      3 C29        24.9780   29.5550    0.6020 c2        1 L2H     -0.098000
      4 C28        24.6560   29.4990    2.0050 c2        1 L2H      0.095000
      5 C2         22.1950   30.3230   -5.0780 c2        1 L2H     -0.353000
      6 C5         25.3600   31.2360   -2.6140 c3        1 L2H     -0.173000
      7 C30        25.3400   28.4990   -0.2480 c2        1 L2H      0.063000
      8 C25        24.0800   29.7600    4.0980 c2        1 L2H     -0.168000
      9 C24        23.6070   30.4280    5.2740 c2        1 L2H      0.194000
     10 C20        40.7470   32.4230  -11.5130 c3        1 L2H     -0.139000
     11 C26        24.5380   28.4370    3.9760 c2        1 L2H      0.108000
     12 C19        39.8980   32.0490  -10.3030 c3        1 L2H     -0.189000
     13 C22        22.9240   31.7490    6.9510 c3        1 L2H     -0.243000
     14 C18        38.4440   32.3990  -10.5950 c3        1 L2H     -0.054000
     15 C23        23.1980   30.3050    7.5300 c1        1 L2H      0.205000
     16 C21        21.5860   32.2930    7.3490 c2        1 L2H      0.288000
     17 C4         23.2760   30.5060   -4.3830 c1        1 L2H      0.054000
     18 C6         26.8100   31.9860   -4.5060 c2        1 L2H      0.360000
     19 C7         27.9590   31.7130   -5.3450 c2        1 L2H     -0.276000
     20 C8         28.2800   32.3440   -6.5560 c2        1 L2H      0.080000
     21 C9         29.8060   30.7870   -6.0650 c2        1 L2H      0.085000
     22 C10        31.0120   29.9810   -6.3720 c3        1 L2H     -0.142000
     23 C31        25.5300   27.0580   -0.1030 c3        1 L2H     -0.182000
     24 C11        31.4890   29.1350   -5.1380 c1        1 L2H      0.147000
     25 C27        24.7060   27.2990    4.8790 c3        1 L2H     -0.193000
     26 C12        33.1750   30.4120   -6.0010 c2        1 L2H      0.073000
     27 C13        34.6070   30.7900   -5.9230 c3        1 L2H     -0.143000
     28 C16        36.8370   31.8210   -8.5970 c1        1 L2H     -0.082000
     29 C14        34.7880   32.3360   -5.7500 c1        1 L2H      0.137000
     30 C15        35.9570   31.5380   -7.5480 c2        1 L2H      0.144000
     31 N9       -239.2150 -316.4110    6.4340 n4        1 L2H     -0.059000
     32 N10        42.1950   32.1170  -11.3190 n4        1 L2H     -0.065000
     33 N8         24.9680   30.7640   -0.1270 n2        1 L2H     -0.036000
     34 N5         20.9030   33.1740    6.3210 n4        1 L2H     -0.140000
     35 N7         24.1630   30.4100    2.8410 n2        1 L2H     -0.053000
     36 N3         32.2000   30.7650   -6.7780 n2        1 L2H     -0.130000
     37 N6         23.1710   31.6370    5.5050 n2        1 L2H     -0.224000
     38 N2         28.9460   30.7370   -5.0550 n2        1 L2H     -0.126000
     39 N1         26.6800   31.0930   -3.2930 n4        1 L2H     -0.073000
     40 N4         35.3860   30.4460   -7.1330 n2        1 L2H     -0.115000
     41 O6         23.6240   29.6100    6.5100 os        1 L2H     -0.137000
     42 O2         29.4360   31.7710   -7.0240 os        1 L2H     -0.066000
     43 O7         24.9050   28.2540    2.6510 os        1 L2H     -0.118000
     44 O8         25.5470   29.0450   -1.5140 os        1 L2H     -0.136000
     45 O3         32.7550   29.4190   -4.9890 os        1 L2H     -0.122000
     46 O4         35.5930   32.7120   -6.7020 os        1 L2H     -0.114000
     47 O1         25.9600   32.8490   -4.6780 o         1 L2H     -0.186000
     48 O5         20.9910   32.1610    8.4010 o         1 L2H     -0.115000
     49 HB2        20.4770   29.0590   -4.9900 hc        1 L2H      0.109333
     50 HB1      -237.3990 -315.4900    5.7870 hx        1 L2H      0.159000
     51 HC2      -238.8120 -314.3470    6.0590 hx        1 L2H      0.159000
     52 HC1      -237.9300 -315.0760    7.4960 hx        1 L2H      0.159000
     53 HF         25.1810   32.3260   -2.3850 hx        1 L2H      0.232000
     54 HD2        21.6830   31.2190   -5.5070 ha        1 L2H      0.226000
     55 HD1        22.0620   28.1710   -4.9480 hc        1 L2H      0.109333
     56 HB2'       12.0980    5.0860   -4.8180 ha        1 L2H      0.000000
     57 HB1'       11.7610    4.5020   -4.8750 ha        1 L2H      0.000000
     58 HC2'       40.3960   31.8540  -12.4230 hx        1 L2H      0.158000
     59 HC1'       40.6560   33.5290  -11.7220 hx        1 L2H      0.158000
     60 HD1'       40.2400   32.6080   -9.3920 hc        1 L2H      0.121000
     61 HD2'       39.9810   30.9500  -10.0870 hc        1 L2H      0.121000
     62 HL         23.7100   32.4300    7.4160 h1        1 L2H      0.217000
     63 HE1        21.4740   28.9060   -6.5030 hc        1 L2H      0.109333
     64 HE2        24.4890   30.8770   -3.3710 hx        1 L2H      0.232000
     65 HH         27.8430   33.1390   -7.1660 h4        1 L2H      0.250000
     66 HE1'       38.0920   31.8400  -11.5100 hc        1 L2H      0.130000
     67 HE2'       38.3530   33.5020  -10.8180 hc        1 L2H      0.130000
     68 HN3        25.7110   26.8050    0.9730 hc        1 L2H      0.129667
     69 HN2        24.6130   26.5160   -0.4530 hc        1 L2H      0.129667
     70 HN1        26.4000   26.7070   -0.7150 hc        1 L2H      0.129667
     71 HI         30.7540   29.2680   -7.2170 h1        1 L2H      0.201000
     72 HM1        24.3950   26.3460    4.3760 hc        1 L2H      0.136667
     73 HM3        24.0950   27.4450    5.8060 hc        1 L2H      0.136667
     74 HM2        25.7860   27.2040    5.1700 hc        1 L2H      0.136667
     75 HF'        20.0780   33.6290    6.7330 hn        1 L2H      0.271333
     76 HJ         35.0740   30.2640   -5.0330 h1        1 L2H      0.204000
     77 HA1      -238.7450 -317.2540    6.7830 hn        1 L2H      0.262000
     78 HA2      -239.5460 -316.5930    5.4790 hn        1 L2H      0.262000
     79 HA3'       42.3270   31.1130  -11.1490 hn        1 L2H      0.262667
     80 HA2'       42.7240   32.3850  -12.1580 hn        1 L2H      0.262667
     81 HK         21.5580   33.8880    5.9840 hn        1 L2H      0.271333
     82 HG         26.7950   30.1120   -3.5860 hn        1 L2H      0.264000
     83 C3         21.5220   29.0410   -5.3930 c3        1 L2H     -0.152000
     84 C17        37.5880   32.0750   -9.4940 c1        1 L2H     -0.066000
     85 H93      -240.0270 -316.2170    7.0300 hn        1 L2H      0.262000
     86 H103       42.5630   32.6350  -10.5140 hn        1 L2H      0.262667
     87 H52        20.6070   32.6060    5.5190 hn        1 L2H      0.271333
     88 H12        27.4480   31.3180   -2.6480 hn        1 L2H      0.264000
@<TRIPOS>BOND
     1    1    6 1
     2    1   33 1
     3    1   44 1
     4    2   31 1
     5    2   50 1
     6    2   51 1
     7    2   52 1
     8    3    4 1
     9    3    7 1
    10    3   33 1
    11    4   35 1
    12    4   43 1
    13    5   17 1
    14    5   54 1
    15    5   83 1
    16    6   39 1
    17    6   53 1
    18    6   64 1
    19    7   23 1
    20    7   44 1
    21    8    9 1
    22    8   11 1
    23    8   35 1
    24    9   37 1
    25    9   41 1
    26   10   12 1
    27   10   32 1
    28   10   58 1
    29   10   59 1
    30   11   25 1
    31   11   43 1
    32   12   14 1
    33   12   60 1
    34   12   61 1
    35   13   15 1
    36   13   16 1
    37   13   37 1
    38   13   62 1
    39   14   66 1
    40   14   67 1
    41   14   84 1
    42   15   41 1
    43   16   34 1
    44   16   48 1
    45   18   19 1
    46   18   39 1
    47   18   47 1
    48   19   20 1
    49   19   38 1
    50   20   42 1
    51   20   65 1
    52   21   22 1
    53   21   38 1
    54   21   42 1
    55   22   24 1
    56   22   36 1
    57   22   71 1
    58   23   68 1
    59   23   69 1
    60   23   70 1
    61   24   45 1
    62   25   72 1
    63   25   73 1
    64   25   74 1
    65   26   27 1
    66   26   36 1
    67   26   45 1
    68   27   29 1
    69   27   40 1
    70   27   76 1
    71   28   30 1
    72   28   84 1
    73   29   46 1
    74   30   40 1
    75   30   46 1
    76   31   77 1
    77   31   78 1
    78   31   85 1
    79   32   79 1
    80   32   80 1
    81   32   86 1
    82   34   75 1
    83   34   81 1
    84   34   87 1
    85   39   82 1
    86   39   88 1
    87   49   83 1
    88   55   83 1
    89   56   57 1
    90   63   83 1
@<TRIPOS>SUBSTRUCTURE
     1 L2H         1 TEMP              0 ****  ****    0 ROOT
