@<TRIPOS>MOLECULE
L2P
  134   133     1     0     0
SMALL
bcc


@<TRIPOS>ATOM
      1 C1         -0.2030    0.3800   -0.6450 c3        1 L2P      0.106400
      2 O1         -0.8450    1.5440   -0.1390 os        1 L2P     -0.414600
      3 C2          1.2900    0.4830   -0.3320 c3        1 L2P      0.102100
      4 O2          1.5460    0.4810    1.0710 os        1 L2P     -0.420600
      5 C3          1.8710    1.8060   -0.8450 c3        1 L2P      0.139400
      6 O3          3.2660    1.8610   -0.6350 oh        1 L2P     -0.603800
      7 C11        -2.2670    1.4160   -0.1250 c3        1 L2P      0.129400
      8 C12        -2.7980    2.6480    0.5860 c3        1 L2P     -0.080400
      9 C13        -4.3140    2.6360    0.6860 c3        1 L2P     -0.061700
     10 C14        -4.7910    3.9420    1.2910 c3        1 L2P     -0.093100
     11 C15        -4.8670    1.4450    1.4550 c3        1 L2P     -0.077400
     12 C16        -4.2350    1.2300    2.8140 c3        1 L2P     -0.082400
     13 C17        -4.8940    0.0760    3.5410 c3        1 L2P     -0.076400
     14 C18        -4.4200   -0.0520    4.9800 c3        1 L2P     -0.064700
     15 C19        -2.9340   -0.3510    5.0440 c3        1 L2P     -0.093100
     16 C20        -5.1810   -1.1410    5.7250 c3        1 L2P     -0.074400
     17 C21        -6.6790   -0.9400    5.8040 c3        1 L2P     -0.077400
     18 C22        -7.0660    0.3990    6.3940 c3        1 L2P     -0.073400
     19 C23        -8.5430    0.5290    6.7340 c3        1 L2P     -0.064700
     20 C24        -8.9000   -0.2920    7.9570 c3        1 L2P     -0.091100
     21 C25        -9.4660    0.1610    5.5820 c3        1 L2P     -0.073400
     22 C26        -9.2500    0.9690    4.3200 c3        1 L2P     -0.078400
     23 C27        -9.5260    2.4440    4.5120 c3        1 L2P     -0.073400
     24 C28        -9.5610    3.2360    3.2130 c3        1 L2P     -0.066700
     25 C29        -8.3170    3.0110    2.3820 c3        1 L2P     -0.090100
     26 C30       -10.8050    2.9350    2.4040 c3        1 L2P     -0.090100
     27 C41         1.4800   -0.8150    1.6650 c3        1 L2P      0.130400
     28 C42         1.7430   -0.6170    3.1480 c3        1 L2P     -0.080400
     29 C43         1.5840   -1.9210    3.9150 c3        1 L2P     -0.062700
     30 C44         0.1240   -2.2530    4.1440 c3        1 L2P     -0.093100
     31 C45         2.3570   -1.8830    5.2260 c3        1 L2P     -0.073400
     32 C46         1.9000   -0.7940    6.1740 c3        1 L2P     -0.081400
     33 C47         2.7470   -0.7810    7.4290 c3        1 L2P     -0.075400
     34 C48         2.2320    0.2070    8.4680 c3        1 L2P     -0.065700
     35 C49         2.3800    1.6340    7.9810 c3        1 L2P     -0.090100
     36 C50         2.9750    0.0060    9.7840 c3        1 L2P     -0.076400
     37 C51         2.2150    0.5370   10.9830 c3        1 L2P     -0.079400
     38 C52         1.1400   -0.4100   11.4760 c3        1 L2P     -0.077400
     39 C53         1.6850   -1.5300   12.3560 c3        1 L2P     -0.066700
     40 C54         0.7270   -2.7030   12.3470 c3        1 L2P     -0.090100
     41 C55         1.9200   -1.0330   13.7760 c3        1 L2P     -0.076400
     42 C56         2.8870   -1.9150   14.5400 c3        1 L2P     -0.079400
     43 C57         3.0970   -1.3950   15.9460 c3        1 L2P     -0.073400
     44 C58         4.0660   -2.2220   16.7760 c3        1 L2P     -0.065700
     45 C59         3.5720   -3.6390   16.9770 c3        1 L2P     -0.089100
     46 C60         5.4590   -2.2230   16.1850 c3        1 L2P     -0.089100
     47 H12        -0.3540    0.3310   -1.7570 h1        1 L2P      0.031700
     48 H11        -0.6360   -0.5420   -0.1740 h1        1 L2P      0.031700
     49 H2          1.8150   -0.3860   -0.8180 h1        1 L2P      0.050700
     50 H32         1.3580    2.6640   -0.3360 h1        1 L2P      0.062200
     51 H31         1.7340    1.8750   -1.9560 h1        1 L2P      0.062200
     52 H3O         3.4090    1.7780    0.3170 ho        1 L2P      0.413000
     53 H112       -2.6460    1.3580   -1.1790 h1        1 L2P      0.026200
     54 H111       -2.5590    0.4800    0.4220 h1        1 L2P      0.026200
     55 H122       -2.4710    3.5620    0.0230 hc        1 L2P      0.056700
     56 H121       -2.3410    2.7120    1.6080 hc        1 L2P      0.056700
     57 H13        -4.7280    2.5690   -0.3620 hc        1 L2P      0.042700
     58 H143       -4.3570    4.0880    2.3090 hc        1 L2P      0.036033
     59 H142       -5.9060    3.9460    1.3780 hc        1 L2P      0.036033
     60 H141       -4.4810    4.8020    0.6490 hc        1 L2P      0.036033
     61 H152       -4.7290    0.5170    0.8380 hc        1 L2P      0.038200
     62 H151       -5.9750    1.5930    1.5850 hc        1 L2P      0.038200
     63 H162       -3.1400    1.0170    2.6900 hc        1 L2P      0.044200
     64 H161       -4.3270    2.1660    3.4260 hc        1 L2P      0.044200
     65 H172       -6.0070    0.2330    3.5370 hc        1 L2P      0.039700
     66 H171       -4.6900   -0.8810    2.9930 hc        1 L2P      0.039700
     67 H18        -4.6050    0.9300    5.5020 hc        1 L2P      0.048700
     68 H193       -2.6160   -0.5230    6.1010 hc        1 L2P      0.033700
     69 H192       -2.6910   -1.2650    4.4490 hc        1 L2P      0.033700
     70 H191       -2.3440    0.5040    4.6350 hc        1 L2P      0.033700
     71 H202       -4.9800   -2.1270    5.2270 hc        1 L2P      0.037700
     72 H201       -4.7690   -1.2040    6.7680 hc        1 L2P      0.037700
     73 H212       -7.1110   -1.7630    6.4350 hc        1 L2P      0.040200
     74 H211       -7.1300   -1.0430    4.7820 hc        1 L2P      0.040200
     75 H222       -6.7970    1.2110    5.6640 hc        1 L2P      0.039700
     76 H221       -6.4670    0.5800    7.3260 hc        1 L2P      0.039700
     77 H23        -8.7250    1.6150    6.9860 hc        1 L2P      0.044700
     78 H243       -8.2330   -0.0260    8.8120 hc        1 L2P      0.033033
     79 H242       -8.7910   -1.3830    7.7500 hc        1 L2P      0.033033
     80 H241       -9.9570   -0.0960    8.2580 hc        1 L2P      0.033033
     81 H252      -10.5270    0.2930    5.9240 hc        1 L2P      0.038700
     82 H251       -9.3290   -0.9270    5.3390 hc        1 L2P      0.038700
     83 H262       -8.1960    0.8300    3.9590 hc        1 L2P      0.040700
     84 H261       -9.9280    0.5640    3.5220 hc        1 L2P      0.040700
     85 H272      -10.5080    2.5750    5.0410 hc        1 L2P      0.039200
     86 H271       -8.7290    2.8800    5.1730 hc        1 L2P      0.039200
     87 H28        -9.5950    4.3290    3.4980 hc        1 L2P      0.042700
     88 H293       -7.3990    3.1560    3.0020 hc        1 L2P      0.033367
     89 H292       -8.2870    3.7310    1.5280 hc        1 L2P      0.033367
     90 H291       -8.3000    1.9740    1.9660 hc        1 L2P      0.033367
     91 H303      -11.7210    3.1100    3.0170 hc        1 L2P      0.033367
     92 H302      -10.8080    1.8740    2.0570 hc        1 L2P      0.033367
     93 H301      -10.8470    3.5970    1.5050 hc        1 L2P      0.033367
     94 H412        2.2560   -1.4800    1.2000 h1        1 L2P      0.026200
     95 H411        0.4650   -1.2620    1.4940 h1        1 L2P      0.026200
     96 H422        2.7830   -0.2180    3.2820 hc        1 L2P      0.057200
     97 H421        1.0360    0.1570    3.5470 hc        1 L2P      0.057200
     98 H43         2.0350   -2.7500    3.2940 hc        1 L2P      0.042700
     99 H443       -0.4010   -1.4160    4.6670 hc        1 L2P      0.035033
    100 H442        0.0310   -3.1740    4.7690 hc        1 L2P      0.035033
    101 H441       -0.3920   -2.4320    3.1700 hc        1 L2P      0.035033
    102 H452        3.4460   -1.7390    4.9990 hc        1 L2P      0.039200
    103 H451        2.2520   -2.8800    5.7310 hc        1 L2P      0.039200
    104 H462        1.9660    0.2010    5.6610 hc        1 L2P      0.043200
    105 H461        0.8240   -0.9580    6.4470 hc        1 L2P      0.043200
    106 H472        2.7530   -1.8120    7.8750 hc        1 L2P      0.038700
    107 H471        3.8070   -0.5260    7.1670 hc        1 L2P      0.038700
    108 H48         1.1370    0.0000    8.6390 hc        1 L2P      0.047700
    109 H493        1.7310    1.8120    7.0900 hc        1 L2P      0.033700
    110 H492        3.4390    1.8440    7.6950 hc        1 L2P      0.033700
    111 H491        2.0820    2.3530    8.7810 hc        1 L2P      0.033700
    112 H502        3.1800   -1.0870    9.9350 hc        1 L2P      0.040200
    113 H501        3.9700    0.5220    9.7200 hc        1 L2P      0.040200
    114 H512        2.9440    0.7390   11.8120 hc        1 L2P      0.040200
    115 H511        1.7400    1.5190   10.7180 hc        1 L2P      0.040200
    116 H522        0.3770    0.1700   12.0590 hc        1 L2P      0.040200
    117 H521        0.6110   -0.8590   10.5940 hc        1 L2P      0.040200
    118 H53         2.6710   -1.8730   11.9300 hc        1 L2P      0.048700
    119 H543       -0.2830   -2.3870   12.7030 hc        1 L2P      0.032700
    120 H542        0.6240   -3.1130   11.3130 hc        1 L2P      0.032700
    121 H541        1.0980   -3.5180   13.0140 hc        1 L2P      0.032700
    122 H552        0.9400   -0.9870   14.3210 hc        1 L2P      0.039700
    123 H551        2.3280    0.0120   13.7430 hc        1 L2P      0.039700
    124 H562        3.8690   -1.9500   13.9990 hc        1 L2P      0.041200
    125 H561        2.4910   -2.9640   14.5800 hc        1 L2P      0.041200
    126 H572        2.1070   -1.3630   16.4760 hc        1 L2P      0.037700
    127 H571        3.4800   -0.3410   15.8930 hc        1 L2P      0.037700
    128 H58         4.1230   -1.7310   17.7920 hc        1 L2P      0.041700
    129 H593        4.2210   -4.1720   17.7120 hc        1 L2P      0.033367
    130 H592        2.5240   -3.6360   17.3630 hc        1 L2P      0.033367
    131 H591        3.5930   -4.2070   16.0150 hc        1 L2P      0.033367
    132 H603        5.8010   -1.1770   15.9920 hc        1 L2P      0.033367
    133 H602        6.1760   -2.7080   16.8910 hc        1 L2P      0.033367
    134 H601        5.4820   -2.7860   15.2210 hc        1 L2P      0.033367
@<TRIPOS>BOND
     1    1    2 1   
     2    1    3 1   
     3    1   47 1   
     4    1   48 1   
     5    2    7 1   
     6    3    4 1   
     7    3    5 1   
     8    3   49 1   
     9    4   27 1   
    10    5    6 1   
    11    5   50 1   
    12    5   51 1   
    13    6   52 1   
    14    7    8 1   
    15    7   53 1   
    16    7   54 1   
    17    8    9 1   
    18    8   55 1   
    19    8   56 1   
    20    9   10 1   
    21    9   11 1   
    22    9   57 1   
    23   10   58 1   
    24   10   59 1   
    25   10   60 1   
    26   11   12 1   
    27   11   61 1   
    28   11   62 1   
    29   12   13 1   
    30   12   63 1   
    31   12   64 1   
    32   13   14 1   
    33   13   65 1   
    34   13   66 1   
    35   14   15 1   
    36   14   16 1   
    37   14   67 1   
    38   15   68 1   
    39   15   69 1   
    40   15   70 1   
    41   16   17 1   
    42   16   71 1   
    43   16   72 1   
    44   17   18 1   
    45   17   73 1   
    46   17   74 1   
    47   18   19 1   
    48   18   75 1   
    49   18   76 1   
    50   19   20 1   
    51   19   21 1   
    52   19   77 1   
    53   20   78 1   
    54   20   79 1   
    55   20   80 1   
    56   21   22 1   
    57   21   81 1   
    58   21   82 1   
    59   22   23 1   
    60   22   83 1   
    61   22   84 1   
    62   23   24 1   
    63   23   85 1   
    64   23   86 1   
    65   24   25 1   
    66   24   26 1   
    67   24   87 1   
    68   25   88 1   
    69   25   89 1   
    70   25   90 1   
    71   26   91 1   
    72   26   92 1   
    73   26   93 1   
    74   27   28 1   
    75   27   94 1   
    76   27   95 1   
    77   28   29 1   
    78   28   96 1   
    79   28   97 1   
    80   29   30 1   
    81   29   31 1   
    82   29   98 1   
    83   30   99 1   
    84   30  100 1   
    85   30  101 1   
    86   31   32 1   
    87   31  102 1   
    88   31  103 1   
    89   32   33 1   
    90   32  104 1   
    91   32  105 1   
    92   33   34 1   
    93   33  106 1   
    94   33  107 1   
    95   34   35 1   
    96   34   36 1   
    97   34  108 1   
    98   35  109 1   
    99   35  110 1   
   100   35  111 1   
   101   36   37 1   
   102   36  112 1   
   103   36  113 1   
   104   37   38 1   
   105   37  114 1   
   106   37  115 1   
   107   38   39 1   
   108   38  116 1   
   109   38  117 1   
   110   39   40 1   
   111   39   41 1   
   112   39  118 1   
   113   40  119 1   
   114   40  120 1   
   115   40  121 1   
   116   41   42 1   
   117   41  122 1   
   118   41  123 1   
   119   42   43 1   
   120   42  124 1   
   121   42  125 1   
   122   43   44 1   
   123   43  126 1   
   124   43  127 1   
   125   44   45 1   
   126   44   46 1   
   127   44  128 1   
   128   45  129 1   
   129   45  130 1   
   130   45  131 1   
   131   46  132 1   
   132   46  133 1   
   133   46  134 1   
@<TRIPOS>SUBSTRUCTURE
     1 L2P         1 TEMP              0 ****  ****    0 ROOT
