@<TRIPOS>MOLECULE
molecule
  134   133     1     0     0
SMALL
bcc


@<TRIPOS>ATOM
      1 C1           0.0000     0.0000     0.0000 c3         1 L2P       0.098400
      2 O1          -0.4820     1.1420     0.6960 os         1 L2P      -0.406600
      3 C2           1.5240     0.0000     0.0000 c3         1 L2P       0.147100
      4 O2           1.9840     0.0000     1.3530 os         1 L2P      -0.386600
      5 C3           2.0810     1.2420    -0.6860 c3         1 L2P       0.150400
      6 O3           3.5020     1.2010    -0.6310 oh         1 L2P      -0.597800
      7 C11         -1.9030     1.2010     0.6800 c3         1 L2P       0.132400
      8 C12         -2.3490     2.4440     1.4420 c3         1 L2P      -0.078400
      9 C13         -3.8770     2.6300     1.4720 c3         1 L2P      -0.064700
     10 C14         -4.2860     3.9040     2.2140 c3         1 L2P      -0.086100
     11 C15         -4.5920     1.3860     2.0460 c3         1 L2P      -0.077400
     12 C16         -4.2710     1.0640     3.5110 c3         1 L2P      -0.080400
     13 C17         -4.9880    -0.2170     3.9600 c3         1 L2P      -0.076400
     14 C18         -4.7660    -0.5620     5.4470 c3         1 L2P      -0.068700
     15 C19         -3.2900    -0.8410     5.7540 c3         1 L2P      -0.089100
     16 C20         -5.6020    -1.7880     5.8790 c3         1 L2P      -0.071400
     17 C21         -7.1060    -1.7220     5.5810 c3         1 L2P      -0.078400
     18 C22         -7.8780    -0.6110     6.3010 c3         1 L2P      -0.073400
     19 C23         -9.3750    -0.5000     5.9460 c3         1 L2P      -0.067700
     20 C24        -10.0990    -1.7850     6.3660 c3         1 L2P      -0.087100
     21 C25         -9.6520    -0.1540     4.4680 c3         1 L2P      -0.072400
     22 C26         -8.9260     1.0880     3.9390 c3         1 L2P      -0.079400
     23 C27         -9.3620     2.3430     4.7030 c3         1 L2P      -0.075400
     24 C28         -8.6490     3.6260     4.2350 c3         1 L2P      -0.074700
     25 C29         -7.1350     3.4680     4.4050 c3         1 L2P      -0.089100
     26 C30         -8.9690     3.9770     2.7810 c3         1 L2P      -0.089100
     27 C41          1.5230    -1.1460     2.0510 c3         1 L2P       0.128400
     28 C42          2.0450    -1.0880     3.4830 c3         1 L2P      -0.077400
     29 C43          1.5870    -2.2740     4.3500 c3         1 L2P      -0.065700
     30 C44          0.0610    -2.3710     4.4300 c3         1 L2P      -0.089100
     31 C45          2.2270    -2.2350     5.7550 c3         1 L2P      -0.070400
     32 C46          1.8400    -1.0290     6.6200 c3         1 L2P      -0.078400
     33 C47          2.5710    -1.0620     7.9670 c3         1 L2P      -0.072400
     34 C48          2.1750     0.0860     8.9180 c3         1 L2P      -0.069700
     35 C49          2.5370     1.4590     8.3360 c3         1 L2P      -0.090100
     36 C50          2.8470    -0.0570    10.3020 c3         1 L2P      -0.075400
     37 C51          2.3990     0.9360    11.3800 c3         1 L2P      -0.093400
     38 C52          0.8950     0.9560    11.6820 c3         1 L2P      -0.069400
     39 C53          0.2810    -0.3910    12.1120 c3         1 L2P      -0.069700
     40 C54         -1.2310    -0.2290    12.3060 c3         1 L2P      -0.085100
     41 C55          0.9440    -1.0220    13.3540 c3         1 L2P      -0.070400
     42 C56          2.4680    -1.1760    13.2760 c3         1 L2P      -0.100400
     43 C57          3.0260    -1.7630    14.5780 c3         1 L2P      -0.073400
     44 C58          4.5520    -1.9670    14.5550 c3         1 L2P      -0.074700
     45 C59          4.9310    -2.9090    13.4090 c3         1 L2P      -0.087100
     46 C60          5.3170    -0.6500    14.4130 c3         1 L2P      -0.087100
     47 H12         -0.3600    -0.8980     0.4880 h1         1 L2P       0.029200
     48 H11         -0.3600     0.0230    -1.0220 h1         1 L2P       0.029200
     49 H2           1.8860    -0.8870    -0.5060 h1         1 L2P       0.049700
     50 H32          1.7230     2.1290    -0.1760 h1         1 L2P       0.036700
     51 H31          1.7570     1.2620    -1.7190 h1         1 L2P       0.036700
     52 H3O          3.8590     1.7720    -1.2910 ho         1 L2P       0.398000
     53 H112        -2.2540     1.2560    -0.3430 h1         1 L2P       0.023700
     54 H111        -2.3090     0.3170     1.1570 h1         1 L2P       0.023700
     55 H122        -1.9880     2.3740     2.4610 hc         1 L2P       0.053700
     56 H121        -1.9030     3.3150     0.9750 hc         1 L2P       0.053700
     57 H13         -4.2040     2.7400     0.4450 hc         1 L2P       0.040700
     58 H143        -4.0500     3.8020     3.2660 hc         1 L2P       0.037033
     59 H142        -3.7480     4.7500     1.8030 hc         1 L2P       0.037033
     60 H141        -5.3520     4.0630     2.0970 hc         1 L2P       0.037033
     61 H152        -5.6610     1.5390     1.9580 hc         1 L2P       0.037200
     62 H151        -4.3190     0.5290     1.4420 hc         1 L2P       0.037200
     63 H162        -3.2010     0.9300     3.6200 hc         1 L2P       0.044200
     64 H161        -4.5920     1.8890     4.1350 hc         1 L2P       0.044200
     65 H172        -6.0510    -0.0960     3.7880 hc         1 L2P       0.040200
     66 H171        -4.6310    -1.0420     3.3570 hc         1 L2P       0.040200
     67 H18         -5.0800     0.2870     6.0420 hc         1 L2P       0.044700
     68 H193        -2.7970    -1.2000     4.8590 hc         1 L2P       0.035033
     69 H192        -3.2180    -1.5920     6.5310 hc         1 L2P       0.035033
     70 H191        -2.8120     0.0720     6.0890 hc         1 L2P       0.035033
     71 H202        -5.1990    -2.6620     5.3810 hc         1 L2P       0.038200
     72 H201        -5.4770    -1.9200     6.9470 hc         1 L2P       0.038200
     73 H212        -7.2330    -1.5850     4.5140 hc         1 L2P       0.038200
     74 H211        -7.5470    -2.6730     5.8570 hc         1 L2P       0.038200
     75 H222        -7.4050     0.3350     6.0670 hc         1 L2P       0.038700
     76 H221        -7.7950    -0.7790     7.3680 hc         1 L2P       0.038700
     77 H23         -9.7840     0.3060     6.5430 hc         1 L2P       0.042700
     78 H243        -9.8950    -2.5670     5.6450 hc         1 L2P       0.033700
     79 H242       -11.1660    -1.6010     6.4070 hc         1 L2P       0.033700
     80 H241        -9.7490    -2.0940     7.3440 hc         1 L2P       0.033700
     81 H252       -10.7180    -0.0010     4.3500 hc         1 L2P       0.037700
     82 H251        -9.3600    -1.0020     3.8610 hc         1 L2P       0.037700
     83 H262        -9.1560     1.2130     2.8880 hc         1 L2P       0.043200
     84 H261        -7.8580     0.9530     4.0560 hc         1 L2P       0.043200
     85 H272       -10.4290     2.4740     4.5740 hc         1 L2P       0.039700
     86 H271        -9.1550     2.1970     5.7560 hc         1 L2P       0.039700
     87 H28         -8.9780     4.4450     4.8620 hc         1 L2P       0.044700
     88 H293        -6.9220     3.0600     5.3850 hc         1 L2P       0.033700
     89 H292        -6.7540     2.7980     3.6440 hc         1 L2P       0.033700
     90 H291        -6.6580     4.4360     4.3060 hc         1 L2P       0.033700
     91 H303        -8.5610     4.9530     2.5470 hc         1 L2P       0.033700
     92 H302       -10.0430     3.9910     2.6410 hc         1 L2P       0.033700
     93 H301        -8.5280     3.2350     2.1250 hc         1 L2P       0.033700
     94 H412         0.4400    -1.1560     2.0580 h1         1 L2P       0.021700
     95 H411         1.8920    -2.0410     1.5650 h1         1 L2P       0.021700
     96 H422         3.1280    -1.0760     3.4560 hc         1 L2P       0.054700
     97 H421         1.6990    -0.1700     3.9410 hc         1 L2P       0.054700
     98 H43          1.9380    -3.1770     3.8650 hc         1 L2P       0.039700
     99 H443        -0.3180    -2.8470     3.5340 hc         1 L2P       0.034367
    100 H442        -0.2180    -2.9590     5.2970 hc         1 L2P       0.034367
    101 H441        -0.3600    -1.3770     4.5170 hc         1 L2P       0.034367
    102 H452         1.9410    -3.1370     6.2830 hc         1 L2P       0.038200
    103 H451         3.3040    -2.2360     5.6370 hc         1 L2P       0.038200
    104 H462         0.7710    -1.0460     6.7950 hc         1 L2P       0.043200
    105 H461         2.1000    -0.1170     6.0960 hc         1 L2P       0.043200
    106 H472         2.3540    -2.0040     8.4550 hc         1 L2P       0.037700
    107 H471         3.6370    -1.0050     7.7830 hc         1 L2P       0.037700
    108 H48          1.1010     0.0520     9.0590 hc         1 L2P       0.045700
    109 H493         3.0940     2.0270     9.0710 hc         1 L2P       0.034700
    110 H492         1.6300     1.9930     8.0780 hc         1 L2P       0.034700
    111 H491         3.1420     1.3260     7.4470 hc         1 L2P       0.034700
    112 H502         2.6540    -1.0590    10.6660 hc         1 L2P       0.037700
    113 H501         3.9170     0.0530    10.1680 hc         1 L2P       0.037700
    114 H512         2.9240     0.6980    12.2970 hc         1 L2P       0.048700
    115 H511         2.6940     1.9300    11.0670 hc         1 L2P       0.048700
    116 H522         0.3770     1.2950    10.7930 hc         1 L2P       0.037700
    117 H521         0.7190     1.6750    12.4730 hc         1 L2P       0.037700
    118 H53          0.4250    -1.0830    11.2910 hc         1 L2P       0.042700
    119 H543        -1.6730    -1.1940    12.5210 hc         1 L2P       0.033700
    120 H542        -1.4190     0.4460    13.1320 hc         1 L2P       0.033700
    121 H541        -1.6690     0.1760    11.4020 hc         1 L2P       0.033700
    122 H552         0.5110    -2.0030    13.5080 hc         1 L2P       0.035200
    123 H551         0.7080    -0.4060    14.2140 hc         1 L2P       0.035200
    124 H562         2.9150    -0.2050    13.1030 hc         1 L2P       0.054200
    125 H561         2.7170    -1.8350    12.4530 hc         1 L2P       0.054200
    126 H572         2.5510    -2.7200    14.7580 hc         1 L2P       0.037200
    127 H571         2.7780    -1.0940    15.3940 hc         1 L2P       0.037200
    128 H58          4.8460    -2.4310    15.4880 hc         1 L2P       0.044700
    129 H593         4.1680    -3.6700    13.2990 hc         1 L2P       0.033533
    130 H592         5.0130    -2.3440    12.4890 hc         1 L2P       0.033533
    131 H591         5.8810    -3.3810    13.6300 hc         1 L2P       0.033533
    132 H603         5.3810    -0.3810    13.3660 hc         1 L2P       0.033533
    133 H602         4.7960     0.1300    14.9550 hc         1 L2P       0.033533
    134 H601         6.3150    -0.7670    14.8180 hc         1 L2P       0.033533
@<TRIPOS>BOND
     1     1     2 1
     2     1     3 1
     3     1    47 1
     4     1    48 1
     5     2     7 1
     6     3     4 1
     7     3     5 1
     8     3    49 1
     9     4    27 1
    10     5     6 1
    11     5    50 1
    12     5    51 1
    13     6    52 1
    14     7     8 1
    15     7    53 1
    16     7    54 1
    17     8     9 1
    18     8    55 1
    19     8    56 1
    20     9    10 1
    21     9    11 1
    22     9    57 1
    23    10    58 1
    24    10    59 1
    25    10    60 1
    26    11    12 1
    27    11    61 1
    28    11    62 1
    29    12    13 1
    30    12    63 1
    31    12    64 1
    32    13    14 1
    33    13    65 1
    34    13    66 1
    35    14    15 1
    36    14    16 1
    37    14    67 1
    38    15    68 1
    39    15    69 1
    40    15    70 1
    41    16    17 1
    42    16    71 1
    43    16    72 1
    44    17    18 1
    45    17    73 1
    46    17    74 1
    47    18    19 1
    48    18    75 1
    49    18    76 1
    50    19    20 1
    51    19    21 1
    52    19    77 1
    53    20    78 1
    54    20    79 1
    55    20    80 1
    56    21    22 1
    57    21    81 1
    58    21    82 1
    59    22    23 1
    60    22    83 1
    61    22    84 1
    62    23    24 1
    63    23    85 1
    64    23    86 1
    65    24    25 1
    66    24    26 1
    67    24    87 1
    68    25    88 1
    69    25    89 1
    70    25    90 1
    71    26    91 1
    72    26    92 1
    73    26    93 1
    74    27    28 1
    75    27    94 1
    76    27    95 1
    77    28    29 1
    78    28    96 1
    79    28    97 1
    80    29    30 1
    81    29    31 1
    82    29    98 1
    83    30    99 1
    84    30   100 1
    85    30   101 1
    86    31    32 1
    87    31   102 1
    88    31   103 1
    89    32    33 1
    90    32   104 1
    91    32   105 1
    92    33    34 1
    93    33   106 1
    94    33   107 1
    95    34    35 1
    96    34    36 1
    97    34   108 1
    98    35   109 1
    99    35   110 1
   100    35   111 1
   101    36    37 1
   102    36   112 1
   103    36   113 1
   104    37    38 1
   105    37   114 1
   106    37   115 1
   107    38    39 1
   108    38   116 1
   109    38   117 1
   110    39    40 1
   111    39    41 1
   112    39   118 1
   113    40   119 1
   114    40   120 1
   115    40   121 1
   116    41    42 1
   117    41   122 1
   118    41   123 1
   119    42    43 1
   120    42   124 1
   121    42   125 1
   122    43    44 1
   123    43   126 1
   124    43   127 1
   125    44    45 1
   126    44    46 1
   127    44   128 1
   128    45   129 1
   129    45   130 1
   130    45   131 1
   131    46   132 1
   132    46   133 1
   133    46   134 1
@<TRIPOS>SUBSTRUCTURE
     1 L2P         1 TEMP              0 ****  ****    0 ROOT
