@<TRIPOS>MOLECULE
L2S
   36    37     1     0     0
SMALL
bcc


@<TRIPOS>ATOM
      1 C1           0.0000     0.0000     0.0000 c3         1 L2S      -0.026400
      2 N1           1.4350    -1.1350     2.1580 n          1 L2S      -0.152800
      3 O1           3.4130    -1.8940     2.8130 o          1 L2S      -0.618100
      4 S1           2.8680    -4.1950     4.3080 ss         1 L2S      -0.266000
      5 C2           1.5310     0.0000     0.0000 c3         1 L2S      -0.041900
      6 C3           2.0370     0.0000     1.4460 c3         1 L2S       0.047500
      7 C4          -0.0280    -1.2820     2.1450 c3         1 L2S       0.047500
      8 C5          -0.5110    -1.2670     0.6910 c3         1 L2S      -0.041900
      9 C6           2.2070    -2.0250     2.8100 c          1 L2S       0.606100
     10 C7           1.5740    -3.1850     3.5370 c3         1 L2S      -0.012300
     11 C8           1.9530    -5.4780     5.0950 ca         1 L2S       0.041900
     12 C9           2.6150    -6.4700     5.8070 ca         1 L2S      -0.097000
     13 C10          1.8950    -7.4740     6.4230 ca         1 L2S      -0.087500
     14 C11          0.5150    -7.4940     6.3310 ca         1 L2S      -0.093300
     15 C12         -0.1480    -6.5080     5.6220 ca         1 L2S      -0.087500
     16 C13          0.5660    -5.4970     5.0100 ca         1 L2S      -0.097000
     17 C14         -0.2680    -8.5910     7.0040 c3         1 L2S       0.064200
     18 H11         -0.3600     0.8710     0.5340 hc         1 L2S       0.017200
     19 H21         -0.3600     0.0230    -1.0220 hc         1 L2S       0.017200
     20 H12          1.8910     0.8860    -0.5080 hc         1 L2S       0.023200
     21 H22          1.8910    -0.8860    -0.5080 hc         1 L2S       0.023200
     22 H13          3.1160    -0.1000     1.4520 h1         1 L2S       0.029950
     23 H23          1.7490     0.9250     1.9300 h1         1 L2S       0.029950
     24 H14         -0.3020    -2.2220     2.6080 h1         1 L2S       0.029950
     25 H24         -0.4790    -0.4590     2.6850 h1         1 L2S       0.029950
     26 H15         -0.1280    -2.1390     0.1740 hc         1 L2S       0.023200
     27 H25         -1.5950    -1.2760     0.6710 hc         1 L2S       0.023200
     28 H17          0.9050    -2.8100     4.3020 h1         1 L2S       0.054200
     29 H27          1.0150    -3.7900     2.8330 h1         1 L2S       0.054200
     30 H9           3.6960    -6.4550     5.8800 ha         1 L2S       0.112500
     31 H10          2.4110    -8.2470     6.9780 ha         1 L2S       0.106000
     32 H112        -1.2290    -6.5250     5.5540 ha         1 L2S       0.106000
     33 H113         0.0460    -4.7250     4.4550 ha         1 L2S       0.112500
     34 H114        -1.1090    -8.1610     7.5350 hc         1 L2S       0.007367
     35 H214        -0.6300    -9.2870     6.2570 hc         1 L2S       0.007367
     36 H314         0.3720    -9.1140     7.7040 hc         1 L2S       0.007367
@<TRIPOS>BOND
     1     1     5 1   
     2     1     8 1   
     3     1    18 1   
     4     1    19 1   
     5     2     6 1   
     6     2     7 1   
     7     2     9 1   
     8     3     9 2   
     9     4    10 1   
    10     4    11 1   
    11     5     6 1   
    12     5    20 1   
    13     5    21 1   
    14     6    22 1   
    15     6    23 1   
    16     7     8 1   
    17     7    24 1   
    18     7    25 1   
    19     8    26 1   
    20     8    27 1   
    21     9    10 1   
    22    10    28 1   
    23    10    29 1   
    24    11    12 ar  
    25    11    16 ar  
    26    12    13 ar  
    27    12    30 1   
    28    13    14 ar  
    29    13    31 1   
    30    14    15 ar  
    31    14    17 1   
    32    15    16 ar  
    33    15    32 1   
    34    16    33 1   
    35    17    34 1   
    36    17    35 1   
    37    17    36 1   
@<TRIPOS>SUBSTRUCTURE
     1 L2S         1 TEMP              0 ****  ****    0 ROOT
