@<TRIPOS>MOLECULE
molecule
   36    37     1     0     0
SMALL
bcc


@<TRIPOS>ATOM
      1 C1           0.0000     0.0000     0.0000 c3         1 L2S      -0.080400
      2 N1           1.4350    -1.1350     2.1580 n          1 L2S      -0.487800
      3 O1           3.4130    -1.8940     2.8130 o          1 L2S      -0.590100
      4 S1           2.8680    -4.1950     4.3080 ss         1 L2S      -0.162000
      5 C2           1.5310     0.0000     0.0000 c3         1 L2S      -0.099900
      6 C3           2.0370     0.0000     1.4460 c3         1 L2S       0.104500
      7 C4          -0.0280    -1.2820     2.1450 c3         1 L2S       0.104500
      8 C5          -0.5110    -1.2670     0.6910 c3         1 L2S      -0.099900
      9 C6           2.2070    -2.0250     2.8100 c          1 L2S       0.679100
     10 C7           1.5740    -3.1850     3.5370 c3         1 L2S      -0.102300
     11 C8           1.9530    -5.4780     5.0950 ca         1 L2S       0.014900
     12 C9           2.6150    -6.4700     5.8070 ca         1 L2S      -0.128500
     13 C10          1.8950    -7.4740     6.4230 ca         1 L2S      -0.111000
     14 C11          0.5150    -7.4940     6.3310 ca         1 L2S      -0.091300
     15 C12         -0.1480    -6.5080     5.6220 ca         1 L2S      -0.111000
     16 C13          0.5660    -5.4970     5.0100 ca         1 L2S      -0.128500
     17 C14         -0.2680    -8.5910     7.0040 c3         1 L2S      -0.046800
     18 H11         -0.3600     0.8710     0.5340 hc         1 L2S       0.044200
     19 H21         -0.3600     0.0230    -1.0220 hc         1 L2S       0.044200
     20 H12          1.8910     0.8860    -0.5080 hc         1 L2S       0.051700
     21 H22          1.8910    -0.8860    -0.5080 hc         1 L2S       0.051700
     22 H13          3.1160    -0.1000     1.4520 h1         1 L2S       0.056200
     23 H23          1.7490     0.9250     1.9300 h1         1 L2S       0.056200
     24 H14         -0.3020    -2.2220     2.6080 h1         1 L2S       0.056200
     25 H24         -0.4790    -0.4590     2.6850 h1         1 L2S       0.056200
     26 H15         -0.1280    -2.1390     0.1740 hc         1 L2S       0.051700
     27 H25         -1.5950    -1.2760     0.6710 hc         1 L2S       0.051700
     28 H17          0.9050    -2.8100     4.3020 h1         1 L2S       0.079700
     29 H27          1.0150    -3.7900     2.8330 h1         1 L2S       0.079700
     30 H9           3.6960    -6.4550     5.8800 ha         1 L2S       0.132500
     31 H10          2.4110    -8.2470     6.9780 ha         1 L2S       0.132000
     32 H112        -1.2290    -6.5250     5.5540 ha         1 L2S       0.132000
     33 H113         0.0460    -4.7250     4.4550 ha         1 L2S       0.132500
     34 H114        -1.1090    -8.1610     7.5350 hc         1 L2S       0.043033
     35 H214        -0.6300    -9.2870     6.2570 hc         1 L2S       0.043033
     36 H314         0.3720    -9.1140     7.7040 hc         1 L2S       0.043033
@<TRIPOS>BOND
     1     1     5 1
     2     1     8 1
     3     1    18 1
     4     1    19 1
     5     2     6 1
     6     2     7 1
     7     2     9 1
     8     3     9 2
     9     4    10 1
    10     4    11 1
    11     5     6 1
    12     5    20 1
    13     5    21 1
    14     6    22 1
    15     6    23 1
    16     7     8 1
    17     7    24 1
    18     7    25 1
    19     8    26 1
    20     8    27 1
    21     9    10 1
    22    10    28 1
    23    10    29 1
    24    11    12 ar
    25    11    16 ar
    26    12    13 ar
    27    12    30 1
    28    13    14 ar
    29    13    31 1
    30    14    15 ar
    31    14    17 1
    32    15    16 ar
    33    15    32 1
    34    16    33 1
    35    17    34 1
    36    17    35 1
    37    17    36 1
@<TRIPOS>SUBSTRUCTURE
     1 L2S         1 TEMP              0 ****  ****    0 ROOT
