@<TRIPOS>MOLECULE
molecule
   44    47     1     0     0
SMALL
bcc


@<TRIPOS>ATOM
      1 C1           0.0000     0.0000     0.0000 ca         1 L31      -0.110300
      2 C2           1.3660     0.0000     0.0000 ca         1 L31      -0.078000
      3 C3           2.0610     0.0000     1.2110 ca         1 L31      -0.092800
      4 C4           1.3490    -0.0010     2.4260 ca         1 L31      -0.037200
      5 C5          -0.0420    -0.0010     2.4020 ca         1 L31      -0.142000
      6 C6          -0.7060    -0.0000     1.1940 ca         1 L31      -0.103000
      7 C10         -0.7470     0.0070    -1.3090 c3         1 L31      -0.042800
      8 C14          3.4750     0.0010     1.5750 cc         1 L31      -0.135400
      9 C15          3.5400    -0.0030     2.9210 cd         1 L31      -0.078300
     10 N16          2.2780    -0.0030     3.4440 na         1 L31      -0.170400
     11 C18          4.6650     0.0130     0.6520 c3         1 L31      -0.024200
     12 C19          5.9080    -0.4250     1.4380 c3         1 L31       0.097000
     13 N22          5.9230     0.2730     2.7320 n          1 L31      -0.481800
     14 C25          4.8420    -0.0090     3.6930 c3         1 L31       0.230200
     15 C26          5.0570    -1.3590     4.3250 ca         1 L31      -0.098300
     16 C28          5.2810    -1.4550     5.6860 ca         1 L31      -0.148000
     17 C29          5.4780    -2.6990     6.2680 ca         1 L31       0.104100
     18 C30          5.4510    -3.8420     5.4820 ca         1 L31      -0.143000
     19 C31          5.2270    -3.7400     4.1230 ca         1 L31      -0.114000
     20 C32          5.0240    -2.4990     3.5460 ca         1 L31      -0.113000
     21 O37          5.7000    -2.7970     7.6060 oh         1 L31      -0.520100
     22 C39          6.9040     1.1470     3.0350 c          1 L31       0.670100
     23 O40          7.8360     1.2990     2.2740 o          1 L31      -0.603100
     24 C41          6.8420     1.9360     4.3180 c3         1 L31      -0.173100
     25 H2           1.9090     0.0000    -0.9370 ha         1 L31       0.132000
     26 H5          -0.6010    -0.0010     3.3300 ha         1 L31       0.125000
     27 H6          -1.7890    -0.0000     1.1770 ha         1 L31       0.132000
     28 H10         -1.7870    -0.2390    -1.1330 hc         1 L31       0.040700
     29 H10A        -0.3110    -0.7270    -1.9770 hc         1 L31       0.040700
     30 H10B        -0.6790     0.9900    -1.7590 hc         1 L31       0.040700
     31 H18          4.8140     1.0150     0.2670 hc         1 L31       0.059200
     32 H18A         4.4940    -0.6750    -0.1670 hc         1 L31       0.059200
     33 H19          6.7990    -0.1680     0.8780 h1         1 L31       0.069200
     34 H19A         5.8730    -1.4950     1.6040 h1         1 L31       0.069200
     35 H25          4.8190     0.7610     4.4550 h1         1 L31       0.075700
     36 H28          5.3020    -0.5610     6.2980 ha         1 L31       0.136000
     37 H30          5.6080    -4.8140     5.9350 ha         1 L31       0.143000
     38 H31          5.2030    -4.6330     3.5100 ha         1 L31       0.138000
     39 H32          4.8480    -2.4210     2.4800 ha         1 L31       0.149000
     40 HO37         4.8760    -2.8870     8.0550 ho         1 L31       0.419000
     41 H41          6.9170     1.2600     5.1610 hc         1 L31       0.061700
     42 H41A         7.6630     2.6420     4.3470 hc         1 L31       0.061700
     43 H41B         5.9020     2.4720     4.3670 hc         1 L31       0.061700
     44 HN16         2.0600    -0.0050     4.4210 hn         1 L31       0.295700
@<TRIPOS>BOND
     1     7     1 1
     2     6     1 ar
     3     1     2 ar
     4     2     3 ar
     5     2    25 1
     6     4     3 ar
     7     3     8 1
     8     5     4 ar
     9     4    10 1
    10     6     5 ar
    11     5    26 1
    12     6    27 1
    13     7    28 1
    14     7    29 1
    15     7    30 1
    16     8     9 2
    17     8    11 1
    18    10     9 1
    19     9    14 1
    20    11    12 1
    21    11    31 1
    22    11    32 1
    23    12    13 1
    24    12    33 1
    25    12    34 1
    26    14    13 1
    27    13    22 1
    28    14    15 1
    29    14    35 1
    30    15    20 ar
    31    15    16 ar
    32    16    17 ar
    33    16    36 1
    34    17    18 ar
    35    17    21 1
    36    19    18 ar
    37    18    37 1
    38    20    19 ar
    39    19    38 1
    40    20    39 1
    41    21    40 1
    42    23    22 2
    43    22    24 1
    44    24    41 1
    45    24    42 1
    46    24    43 1
    47    10    44 1
@<TRIPOS>SUBSTRUCTURE
     1 L31         1 TEMP              0 ****  ****    0 ROOT
