@<TRIPOS>MOLECULE
molecule
   29    31     1     0     0
SMALL
bcc


@<TRIPOS>ATOM
      1 Br2          0.0000     0.0000     0.0000 br         1 L32      -0.102100
      2 C12          1.8910     0.0000     0.0000 ca         1 L32      -0.023900
      3 C11          2.5810     0.0000     1.2000 ca         1 L32      -0.116000
      4 C10          3.9620     0.0010     1.2140 ca         1 L32      -0.113500
      5 C09          4.6710     0.0010     0.0170 cp         1 L32      -0.029000
      6 C02          6.1240     0.0010    -0.2710 cp         1 L32      -0.029000
      7 C13          2.5800    -0.0050    -1.2000 ca         1 L32      -0.057000
      8 C08          3.9700     0.0010    -1.2010 ca         1 L32      -0.114400
      9 C07          4.9680    -0.0020    -2.2980 cc         1 L32       0.425500
     10 N14          4.7140    -0.0020    -3.5740 n2         1 L32      -0.385200
     11 O15          3.3740    -0.0060    -4.0300 os         1 L32      -0.149300
     12 C16          3.2440    -0.0050    -5.4530 c3         1 L32       0.022400
     13 C17          1.7840    -0.0090    -5.8240 c          1 L32       0.896600
     14 O19          1.4190    -0.0090    -7.1160 o          1 L32      -0.825300
     15 O18          0.9400    -0.0110    -4.9590 o          1 L32      -0.825300
     16 C03          6.3070     0.0010    -1.6640 ca         1 L32      -0.114400
     17 C04          7.5940     0.0000    -2.1930 ca         1 L32      -0.057000
     18 C05          8.6870     0.0030    -1.3470 ca         1 L32      -0.023900
     19 Br1         10.4350     0.0020    -2.0690 br         1 L32      -0.102100
     20 C06          8.5090     0.0080     0.0250 ca         1 L32      -0.116000
     21 C01          7.2360     0.0010     0.5660 ca         1 L32      -0.113500
     22 H1           2.0330    -0.0000     2.1350 ha         1 L32       0.134000
     23 H2           4.4940     0.0010     2.1580 ha         1 L32       0.128500
     24 H3           2.0390     0.0690    -2.1350 ha         1 L32       0.181500
     25 H4           3.7170     0.8820    -5.8580 h1         1 L32       0.032700
     26 H5           3.7230    -0.8870    -5.8600 h1         1 L32       0.032700
     27 H7           7.8280     0.0040    -3.2510 ha         1 L32       0.181500
     28 H8           9.3880     0.0060     0.6580 ha         1 L32       0.134000
     29 H9           7.2380    -0.0030     1.6490 ha         1 L32       0.128500
@<TRIPOS>BOND
     1    15    13 1
     2    14    13 1
     3    13    12 1
     4    12    11 1
     5    11    10 1
     6    10     9 2
     7     9    16 1
     8     9     8 1
     9    17    16 ar
    10    17    18 ar
    11     7     8 ar
    12     7     2 ar
    13    16     6 ar
    14     8     5 ar
    15    19    18 1
    16    18    20 ar
    17     1     2 1
    18     2     3 ar
    19     6     5 1
    20     6    21 ar
    21     5     4 ar
    22    20    21 ar
    23     3     4 ar
    24     3    22 1
    25     4    23 1
    26     7    24 1
    27    12    25 1
    28    12    26 1
    29    17    27 1
    30    20    28 1
    31    21    29 1
@<TRIPOS>SUBSTRUCTURE
     1 L32         1 TEMP              0 ****  ****    0 ROOT
