@<TRIPOS>MOLECULE
L32
   29    31     1     0     0
SMALL
bcc


@<TRIPOS>ATOM
      1 Br2          0.0000     0.0000     0.0000 br         1 L32      -0.143100
      2 C12          1.8910     0.0000     0.0000 ca         1 L32       0.032600
      3 C11          2.5810     0.0000     1.2000 ca         1 L32      -0.104000
      4 C10          3.9620     0.0010     1.2140 ca         1 L32      -0.080500
      5 C09          4.6710     0.0010     0.0170 cp         1 L32      -0.032000
      6 C02          6.1240     0.0010    -0.2710 cp         1 L32      -0.032000
      7 C13          2.5800    -0.0050    -1.2000 ca         1 L32      -0.041000
      8 C08          3.9700     0.0010    -1.2010 ca         1 L32      -0.110900
      9 C07          4.9680    -0.0020    -2.2980 cc         1 L32       0.397500
     10 N14          4.7140    -0.0020    -3.5740 n2         1 L32      -0.325200
     11 O15          3.3740    -0.0060    -4.0300 os         1 L32      -0.138300
     12 C16          3.2440    -0.0050    -5.4530 c3         1 L32       0.099400
     13 C17          1.7840    -0.0090    -5.8240 c          1 L32       0.976600
     14 O19          1.4190    -0.0090    -7.1160 o          1 L32      -0.881300
     15 O18          0.9400    -0.0110    -4.9590 o          1 L32      -0.881300
     16 C03          6.3070     0.0010    -1.6640 ca         1 L32      -0.110900
     17 C04          7.5940     0.0000    -2.1930 ca         1 L32      -0.041000
     18 C05          8.6870     0.0030    -1.3470 ca         1 L32       0.032600
     19 Br1         10.4350     0.0020    -2.0690 br         1 L32      -0.143100
     20 C06          8.5090     0.0080     0.0250 ca         1 L32      -0.104000
     21 C01          7.2360     0.0010     0.5660 ca         1 L32      -0.080500
     22 H1           2.0330    -0.0000     2.1350 ha         1 L32       0.108000
     23 H2           4.4940     0.0010     2.1580 ha         1 L32       0.100000
     24 H3           2.0390     0.0690    -2.1350 ha         1 L32       0.149000
     25 H4           3.7170     0.8820    -5.8580 h1         1 L32      -0.001300
     26 H5           3.7230    -0.8870    -5.8600 h1         1 L32      -0.001300
     27 H7           7.8280     0.0040    -3.2510 ha         1 L32       0.149000
     28 H8           9.3880     0.0060     0.6580 ha         1 L32       0.108000
     29 H9           7.2380    -0.0030     1.6490 ha         1 L32       0.100000
@<TRIPOS>BOND
     1     1     2 1   
     2     2     3 ar  
     3     2     7 ar  
     4     3     4 ar  
     5     3    22 1   
     6     4     5 ar  
     7     4    23 1   
     8     5     6 1   
     9     5     8 ar  
    10     6    16 ar  
    11     6    21 ar  
    12     7     8 ar  
    13     7    24 1   
    14     8     9 1   
    15     9    10 2   
    16     9    16 1   
    17    10    11 1   
    18    11    12 1   
    19    12    13 1   
    20    12    25 1   
    21    12    26 1   
    22    13    14 1   
    23    13    15 1   
    24    16    17 ar  
    25    17    18 ar  
    26    17    27 1   
    27    18    19 1   
    28    18    20 ar  
    29    20    21 ar  
    30    20    28 1   
    31    21    29 1   
@<TRIPOS>SUBSTRUCTURE
     1 L32         1 TEMP              0 ****  ****    0 ROOT
