@<TRIPOS>MOLECULE
L33
   55    56     1     0     0
SMALL
bcc


@<TRIPOS>ATOM
      1 C15          0.0000     0.0000     0.0000 ca         1 L33      -0.113000
      2 C14          1.3820     0.0000     0.0000 ca         1 L33      -0.008000
      3 C12          1.3910     0.0010     2.3950 ca         1 L33      -0.028000
      4 C4          -4.0910     1.3060     6.5710 cc         1 L33      -0.267600
      5 C3          -3.7780     1.4730     5.2000 cc         1 L33       0.003700
      6 C11          0.0020     0.0070     2.3990 ca         1 L33      -0.119400
      7 C16         -0.6920     0.0070     1.1960 ca         1 L33      -0.050000
      8 C13          2.0780     0.0000     1.1960 ca         1 L33      -0.143500
      9 C7          -2.6070     0.8150     4.9760 cd         1 L33      -0.419900
     10 C5          -3.0750     0.5440     7.1270 cd         1 L33      -0.261600
     11 C8          -1.8490     0.6950     3.7230 c          1 L33       0.621700
     12 C26         -2.9860     0.1130     8.5680 c3         1 L33       0.100200
     13 C29         -6.5620     1.0760     7.2610 c3         1 L33      -0.088100
     14 C23          6.0100    -2.2180    -0.4690 c3         1 L33      -0.020100
     15 C25          6.0210    -2.2240     2.8270 c3         1 L33      -0.020100
     16 C2          -4.5870     2.2360     4.1830 c3         1 L33       0.040900
     17 N6          -2.1930     0.2490     6.1630 na         1 L33       0.428900
     18 N10         -0.6950     0.0090     3.6100 ns         1 L33      -0.036100
     19 N21          4.3220    -1.5930     1.1860 n3         1 L33      -0.535500
     20 O28         -5.1890     2.9020     7.8550 o          1 L33      -0.556100
     21 O9          -2.3280     1.2450     2.7490 o          1 L33      -0.632100
     22 O19          4.2380     0.5370    -0.0600 o          1 L33      -0.586800
     23 O20          4.2470     0.5320     2.4400 o          1 L33      -0.586800
     24 S18          3.8400    -0.0080     1.1900 sy         1 L33       1.053200
     25 H1          -0.5410     0.0000    -0.9380 ha         1 L33       0.112000
     26 H2           1.9230    -0.0030    -0.9390 ha         1 L33       0.123000
     27 H3           1.9360     0.0010     3.3310 ha         1 L33       0.122000
     28 H4          -1.7760     0.0090     1.1950 ha         1 L33       0.145000
     29 H5          -3.1010     0.9770     9.2120 hc         1 L33       0.012367
     30 H6          -3.7710    -0.6030     8.7810 hc         1 L33       0.012367
     31 H7          -2.0210    -0.3450     8.7490 hc         1 L33       0.012367
     32 H8          -6.4280     0.1460     6.7220 hc         1 L33       0.024033
     33 H9          -7.3270     1.6680     6.7740 hc         1 L33       0.024033
     34 H10         -6.8620     0.8640     8.2790 hc         1 L33       0.024033
     35 H11         -4.8710     4.3190     4.6300 hc         1 L33       0.005033
     36 H12         -3.9940     4.0100     3.1250 hc         1 L33       0.005033
     37 H13         -3.1850     3.7860     4.6820 hc         1 L33       0.005033
     38 H14          6.5310    -3.0780    -0.0650 hc         1 L33       0.010200
     39 H15          6.4460    -1.3110    -0.0670 hc         1 L33       0.010200
     40 H16          6.1010    -2.2160    -1.5480 hc         1 L33       0.010200
     41 H17          6.5390    -3.0830     2.4170 hc         1 L33       0.010200
     42 H18          6.1210    -2.2250     3.9060 hc         1 L33       0.010200
     43 H19          6.4530    -1.3160     2.4250 hc         1 L33       0.010200
     44 H20         -4.4470     1.7930     3.2040 hc         1 L33       0.027700
     45 H21         -5.6360     2.1950     4.4510 hc         1 L33       0.027700
     46 H22          3.9340    -1.8210    -0.8570 h1         1 L33       0.012950
     47 H23          4.2360    -3.3270     0.0200 h1         1 L33       0.012950
     48 H24          4.2440    -3.3320     2.3460 h1         1 L33       0.012950
     49 H25          3.9480    -1.8290     3.2310 h1         1 L33       0.012950
     50 H26         -1.3600    -0.2930     6.2860 hn         1 L33       0.105700
     51 H27         -0.3540    -0.5260     4.3840 hn         1 L33       0.155500
     52 C27         -5.2640     1.8420     7.2700 c          1 L33       0.669700
     53 C22          4.5310    -2.2910    -0.0850 c3         1 L33       0.244300
     54 C1          -4.1250     3.6940     4.1530 c3         1 L33       0.011900
     55 C24          4.5400    -2.2950     2.4520 c3         1 L33       0.244300
@<TRIPOS>BOND
     1     1     2 ar  
     2     1     7 ar  
     3     1    25 1   
     4     2     8 ar  
     5     2    26 1   
     6     3     6 ar  
     7     3     8 ar  
     8     3    27 1   
     9     4     5 1   
    10     4    10 2   
    11     4    52 1   
    12     5     9 2   
    13     5    16 1   
    14     6     7 ar  
    15     6    18 1   
    16     7    28 1   
    17     8    24 1   
    18     9    11 1   
    19     9    17 1   
    20    10    12 1   
    21    10    17 1   
    22    11    18 1   
    23    11    21 2   
    24    12    29 1   
    25    12    30 1   
    26    12    31 1   
    27    13    32 1   
    28    13    33 1   
    29    13    34 1   
    30    13    52 1   
    31    14    38 1   
    32    14    39 1   
    33    14    40 1   
    34    14    53 1   
    35    15    41 1   
    36    15    42 1   
    37    15    43 1   
    38    15    55 1   
    39    16    44 1   
    40    16    45 1   
    41    16    54 1   
    42    17    50 1   
    43    18    51 1   
    44    19    24 1   
    45    19    53 1   
    46    19    55 1   
    47    20    52 2   
    48    22    24 2   
    49    23    24 2   
    50    35    54 1   
    51    36    54 1   
    52    37    54 1   
    53    46    53 1   
    54    47    53 1   
    55    48    55 1   
    56    49    55 1   
@<TRIPOS>SUBSTRUCTURE
     1 L33         1 TEMP              0 ****  ****    0 ROOT
