@<TRIPOS>MOLECULE
molecule
   55    56     1     0     0
SMALL
bcc


@<TRIPOS>ATOM
      1 C15          0.0000     0.0000     0.0000 ca         1 L33      -0.135000
      2 C14          1.3820     0.0000     0.0000 ca         1 L33      -0.044000
      3 C12          1.3910     0.0010     2.3950 ca         1 L33      -0.062000
      4 C4          -4.0910     1.3060     6.5710 cc         1 L33      -0.262600
      5 C3          -3.7780     1.4730     5.2000 cc         1 L33      -0.011300
      6 C11          0.0020     0.0070     2.3990 ca         1 L33       0.035600
      7 C16         -0.6920     0.0070     1.1960 ca         1 L33      -0.073000
      8 C13          2.0780     0.0000     1.1960 ca         1 L33      -0.298500
      9 C7          -2.6070     0.8150     4.9760 cd         1 L33      -0.206900
     10 C5          -3.0750     0.5440     7.1270 cd         1 L33      -0.048600
     11 C8          -1.8490     0.6950     3.7230 c          1 L33       0.702700
     12 C26         -2.9860     0.1130     8.5680 c3         1 L33      -0.031800
     13 C29         -6.5620     1.0760     7.2610 c3         1 L33      -0.188100
     14 C23          6.0100    -2.2180    -0.4690 c3         1 L33      -0.108100
     15 C25          6.0210    -2.2240     2.8270 c3         1 L33      -0.108100
     16 C2          -4.5870     2.2360     4.1830 c3         1 L33      -0.020100
     17 N6          -2.1930     0.2490     6.1630 na         1 L33      -0.145100
     18 N10         -0.6950     0.0090     3.6100 ns         1 L33      -0.478100
     19 N21          4.3220    -1.5930     1.1860 n3         1 L33      -0.820500
     20 O28         -5.1890     2.9020     7.8550 o          1 L33      -0.518100
     21 O9          -2.3280     1.2450     2.7490 o          1 L33      -0.591100
     22 O19          4.2380     0.5370    -0.0600 o          1 L33      -0.633800
     23 O20          4.2470     0.5320     2.4400 o          1 L33      -0.633800
     24 S18          3.8400    -0.0080     1.1900 sy         1 L33       1.424200
     25 H1          -0.5410     0.0000    -0.9380 ha         1 L33       0.142000
     26 H2           1.9230    -0.0030    -0.9390 ha         1 L33       0.149000
     27 H3           1.9360     0.0010     3.3310 ha         1 L33       0.147000
     28 H4          -1.7760     0.0090     1.1950 ha         1 L33       0.170000
     29 H5          -3.1010     0.9770     9.2120 hc         1 L33       0.055367
     30 H6          -3.7710    -0.6030     8.7810 hc         1 L33       0.055367
     31 H7          -2.0210    -0.3450     8.7490 hc         1 L33       0.055367
     32 H8          -6.4280     0.1460     6.7220 hc         1 L33       0.061033
     33 H9          -7.3270     1.6680     6.7740 hc         1 L33       0.061033
     34 H10         -6.8620     0.8640     8.2790 hc         1 L33       0.061033
     35 H11         -4.8710     4.3190     4.6300 hc         1 L33       0.039033
     36 H12         -3.9940     4.0100     3.1250 hc         1 L33       0.039033
     37 H13         -3.1850     3.7860     4.6820 hc         1 L33       0.039033
     38 H14          6.5310    -3.0780    -0.0650 hc         1 L33       0.042700
     39 H15          6.4460    -1.3110    -0.0670 hc         1 L33       0.042700
     40 H16          6.1010    -2.2160    -1.5480 hc         1 L33       0.042700
     41 H17          6.5390    -3.0830     2.4170 hc         1 L33       0.042700
     42 H18          6.1210    -2.2250     3.9060 hc         1 L33       0.042700
     43 H19          6.4530    -1.3160     2.4250 hc         1 L33       0.042700
     44 H20         -4.4470     1.7930     3.2040 hc         1 L33       0.058200
     45 H21         -5.6360     2.1950     4.4510 hc         1 L33       0.058200
     46 H22          3.9340    -1.8210    -0.8570 h1         1 L33       0.048950
     47 H23          4.2360    -3.3270     0.0200 h1         1 L33       0.048950
     48 H24          4.2440    -3.3320     2.3460 h1         1 L33       0.048950
     49 H25          3.9480    -1.8290     3.2310 h1         1 L33       0.048950
     50 H26         -1.3600    -0.2930     6.2860 hn         1 L33       0.293700
     51 H27         -0.3540    -0.5260     4.3840 hn         1 L33       0.315500
     52 C27         -5.2640     1.8420     7.2700 c          1 L33       0.610700
     53 C22          4.5310    -2.2910    -0.0850 c3         1 L33       0.239300
     54 C1          -4.1250     3.6940     4.1530 c3         1 L33      -0.082100
     55 C24          4.5400    -2.2950     2.4520 c3         1 L33       0.239300
@<TRIPOS>BOND
     1    12    10 1
     2    14    53 1
     3    22    24 2
     4    10    17 1
     5    10     4 2
     6    53    19 1
     7    17     9 1
     8    20    52 2
     9    21    11 2
    10     4    52 1
    11     4     5 1
    12    52    13 1
    13    19    24 1
    14    19    55 1
    15     9    11 1
    16     9     5 2
    17    24    23 2
    18    24     8 1
    19    11    18 1
    20     5    16 1
    21    55    15 1
    22     3     8 ar
    23     3     6 ar
    24     8     2 ar
    25    18     6 1
    26    16    54 1
    27     6     7 ar
    28     2     1 ar
    29     7     1 ar
    30     1    25 1
    31     2    26 1
    32     3    27 1
    33     7    28 1
    34    12    29 1
    35    12    30 1
    36    12    31 1
    37    13    32 1
    38    13    33 1
    39    13    34 1
    40    54    35 1
    41    54    36 1
    42    54    37 1
    43    14    38 1
    44    14    39 1
    45    14    40 1
    46    15    41 1
    47    15    42 1
    48    15    43 1
    49    16    44 1
    50    16    45 1
    51    53    46 1
    52    53    47 1
    53    55    48 1
    54    55    49 1
    55    17    50 1
    56    18    51 1
@<TRIPOS>SUBSTRUCTURE
     1 L33         1 TEMP              0 ****  ****    0 ROOT
