@<TRIPOS>MOLECULE
molecule
   53    56     1     0     0
SMALL
bcc


@<TRIPOS>ATOM
      1 N2A          0.0000     0.0000     0.0000 nv         1 L34      -1.058500
      2 N1           2.0260     0.0000     1.1590 nb         1 L34      -0.804000
      3 C2           1.3860     0.0000     0.0000 ca         1 L34       0.955900
      4 N3           2.0250     0.0060    -1.1610 nb         1 L34      -0.837000
      5 C4           3.3560     0.0110    -1.2060 ca         1 L34       0.691600
      6 O4A          4.0100     0.0190    -2.3950 oh         1 L34      -0.537300
      7 C4A          4.0580     0.0070    -0.0140 ca         1 L34      -0.203000
      8 N5           5.4610     0.0180     0.0480 n          1 L34      -0.393000
      9 C6           6.1740    -0.3900     1.2840 c3         1 L34       0.066700
     10 C7           5.4590     0.3030     2.4500 c3         1 L34       0.174800
     11 N8           4.0330    -0.0560     2.3930 nu         1 L34      -0.813900
     12 C8A          3.3540    -0.0040     1.1960 ca         1 L34       0.660200
     13 CX           6.3600     0.4010    -0.8550 c          1 L34       0.816500
     14 OX           6.0980     0.5570    -2.0310 o          1 L34      -0.624500
     15 C9           7.5900     0.1650     1.0680 c3         1 L34       0.091000
     16 N10          7.5850     0.5950    -0.3420 n          1 L34      -0.384000
     17 C1B          8.6780     1.1200    -1.0290 ca         1 L34       0.071600
     18 C2B          8.5440     1.4900    -2.3640 ca         1 L34      -0.185500
     19 C3B          9.6200     2.0080    -3.0460 ca         1 L34      -0.068000
     20 C4B         10.8480     2.1630    -2.3980 ca         1 L34      -0.123600
     21 C5B         10.9780     1.7910    -1.0580 ca         1 L34      -0.068000
     22 C6B          9.8970     1.2780    -0.3800 ca         1 L34      -0.185500
     23 C7B         12.0040     2.7180    -3.1280 c          1 L34       0.655700
     24 O7B         11.8900     3.0410    -4.2940 o          1 L34      -0.642100
     25 N           13.1880     2.8680    -2.5020 ns         1 L34      -0.503900
     26 CA          14.3360     3.4180    -3.2250 c3         1 L34      -0.000300
     27 CB          15.2460     4.1630    -2.2480 c3         1 L34      -0.063400
     28 CG          14.4640     5.3010    -1.5900 c3         1 L34      -0.184400
     29 CD          15.3610     6.0350    -0.6260 c          1 L34       0.889600
     30 OE1         16.5090     5.6830    -0.4810 o          1 L34      -0.873800
     31 OE2         14.8860     7.0790     0.0710 o          1 L34      -0.873800
     32 C           15.1060     2.2970    -3.8740 c          1 L34       0.893600
     33 O           15.7110     2.4940    -4.9010 o          1 L34      -0.860800
     34 OXT         15.1210     1.0790    -3.3100 o          1 L34      -0.860800
     35 HN21        -0.5000     0.8650    -0.0610 hn         1 L34       0.438800
     36 HN22        -0.5000    -0.8640     0.0680 hn         1 L34       0.438800
     37 HO4          3.4240    -0.2650    -3.0780 ho         1 L34       0.425000
     38 H6           6.1810    -1.4670     1.4010 h1         1 L34       0.081700
     39 H71          5.5580     1.3760     2.3380 h1         1 L34       0.060700
     40 H72          5.8760    -0.0560     3.3830 h1         1 L34       0.060700
     41 HN8          3.5300     0.4650     3.0840 hn         1 L34       0.403800
     42 H91          7.7090     1.0440     1.6900 h1         1 L34       0.070700
     43 H92          8.2940    -0.6520     1.1710 h1         1 L34       0.070700
     44 H2B          7.5920     1.3690    -2.8660 ha         1 L34       0.143000
     45 H3B          9.5160     2.2950    -4.0860 ha         1 L34       0.156000
     46 H5B         11.9280     1.9120    -0.5520 ha         1 L34       0.156000
     47 H6B          9.9970     0.9890     0.6590 ha         1 L34       0.143000
     48 HN          13.2910     2.5730    -1.5510 hn         1 L34       0.306500
     49 HA          13.9870     4.1040    -3.9870 h1         1 L34       0.066700
     50 HB1         16.0950     4.5700    -2.7840 hc         1 L34       0.057700
     51 HB2         15.5960     3.4770    -1.4850 hc         1 L34       0.057700
     52 HG1         14.1150     5.9870    -2.3520 hc         1 L34       0.022700
     53 HG2         13.6150     4.8930    -1.0540 hc         1 L34       0.022700
@<TRIPOS>BOND
     1     1     3 1
     2     1    35 1
     3     1    36 1
     4     2     3 ar
     5     2    12 ar
     6     3     4 ar
     7     4     5 ar
     8     5     6 1
     9     5     7 ar
    10     6    37 1
    11     7     8 1
    12     7    12 ar
    13     8     9 1
    14     8    13 1
    15     9    10 1
    16     9    15 1
    17     9    38 1
    18    10    11 1
    19    10    39 1
    20    10    40 1
    21    11    12 1
    22    11    41 1
    23    13    14 2
    24    13    16 1
    25    15    16 1
    26    15    42 1
    27    15    43 1
    28    16    17 1
    29    17    18 ar
    30    17    22 ar
    31    18    19 ar
    32    18    44 1
    33    19    20 ar
    34    19    45 1
    35    20    21 ar
    36    20    23 1
    37    21    22 ar
    38    21    46 1
    39    22    47 1
    40    23    24 2
    41    23    25 1
    42    25    26 1
    43    25    48 1
    44    26    27 1
    45    26    32 1
    46    26    49 1
    47    27    28 1
    48    27    50 1
    49    27    51 1
    50    28    29 1
    51    28    52 1
    52    28    53 1
    53    29    30 1
    54    29    31 1
    55    32    33 1
    56    32    34 1
@<TRIPOS>SUBSTRUCTURE
     1 L34         1 TEMP              0 ****  ****    0 ROOT
