@<TRIPOS>MOLECULE
L35
   40    41     1     0     0
SMALL
bcc


@<TRIPOS>ATOM
      1 C1           0.0000     0.0000     0.0000 ca         1 L35      -0.034400
      2 C2           1.3890     0.0000     0.0000 ca         1 L35      -0.124500
      3 C3           2.0780     0.0000     1.1990 ca         1 L35      -0.004100
      4 C4           1.3860    -0.0100     2.3970 ca         1 L35      -0.128000
      5 C5           0.0010    -0.0140     2.3990 ca         1 L35      -0.004100
      6 C6          -0.6920    -0.0100     1.2030 ca         1 L35      -0.124500
      7 C7          -1.8740     0.6580    -1.3100 c          1 L35       0.546100
      8 C8          -6.0490     2.8740    -2.8870 ca         1 L35       0.146100
      9 C9          -5.9980     1.5950    -3.4210 ca         1 L35      -0.124500
     10 C10         -4.8570     0.8320    -3.2770 ca         1 L35      -0.106500
     11 C11         -3.7640     1.3400    -2.5880 ca         1 L35      -0.134400
     12 C12         -3.8180     2.6180    -2.0480 ca         1 L35      -0.106500
     13 C13         -4.9570     3.3820    -2.1970 ca         1 L35      -0.124500
     14 C14         -7.0070     4.3820    -4.2360 c3         1 L35       0.048800
     15 C15         -5.7110     5.1920    -4.1580 c3         1 L35      -0.036600
     16 C16         -6.9420     3.4300    -5.4310 c3         1 L35      -0.036600
     17 C17         -8.1750     5.3200    -4.4050 c          1 L35       0.983600
     18 N1          -0.7000     0.0040    -1.2120 ns         1 L35      -0.067100
     19 N2          -2.6080     0.5630    -2.4360 ns         1 L35      -0.031100
     20 O1          -2.2720     1.3350    -0.3810 o          1 L35      -0.676100
     21 O3          -8.2360     6.1330    -5.4710 o          1 L35      -0.879800
     22 O4          -9.0570     5.3410    -3.5790 o          1 L35      -0.879800
     23 Cl1         -0.8630    -0.0260     3.9030 cl         1 L35      -0.028900
     24 Cl2          3.8140     0.0060     1.2000 cl         1 L35      -0.028900
     25 H2           1.9310     0.0080    -0.9380 ha         1 L35       0.138500
     26 H4           1.9280    -0.0110     3.3350 ha         1 L35       0.122000
     27 H6          -1.7760    -0.0120     1.2050 ha         1 L35       0.138500
     28 H9          -6.8500     1.1990    -3.9590 ha         1 L35       0.124500
     29 H10         -4.8160    -0.1660    -3.6970 ha         1 L35       0.110000
     30 H12         -2.9650     3.0150    -1.5100 ha         1 L35       0.110000
     31 H13         -4.9990     4.3800    -1.7780 ha         1 L35       0.124500
     32 H151        -5.6930     5.9230    -4.9570 hc         1 L35       0.009200
     33 H152        -5.6590     5.7000    -3.2030 hc         1 L35       0.009200
     34 H153        -4.8620     4.5260    -4.2590 hc         1 L35       0.009200
     35 H161        -7.1220     3.9840    -6.3450 hc         1 L35       0.009200
     36 H162        -5.9620     2.9710    -5.4740 hc         1 L35       0.009200
     37 H163        -7.6960     2.6600    -5.3210 hc         1 L35       0.009200
     38 HN1         -0.3460    -0.5080    -1.9950 hn         1 L35       0.161500
     39 HN2         -2.3130    -0.0450    -3.1750 hn         1 L35       0.151500
     40 O2          -7.1710     3.6290    -3.0340 os         1 L35      -0.276900
@<TRIPOS>BOND
     1     1     2 ar  
     2     1     6 ar  
     3     1    18 1   
     4     2     3 ar  
     5     2    25 1   
     6     3     4 ar  
     7     3    24 1   
     8     4     5 ar  
     9     4    26 1   
    10     5     6 ar  
    11     5    23 1   
    12     6    27 1   
    13     7    18 1   
    14     7    19 1   
    15     7    20 2   
    16     8     9 ar  
    17     8    13 ar  
    18     8    40 1   
    19     9    10 ar  
    20     9    28 1   
    21    10    11 ar  
    22    10    29 1   
    23    11    12 ar  
    24    11    19 1   
    25    12    13 ar  
    26    12    30 1   
    27    13    31 1   
    28    14    15 1   
    29    14    16 1   
    30    14    17 1   
    31    14    40 1   
    32    15    32 1   
    33    15    33 1   
    34    15    34 1   
    35    16    35 1   
    36    16    36 1   
    37    16    37 1   
    38    17    21 1   
    39    17    22 1   
    40    18    38 1   
    41    19    39 1   
@<TRIPOS>SUBSTRUCTURE
     1 L35         1 TEMP              0 ****  ****    0 ROOT
