@<TRIPOS>MOLECULE
molecule
   44    44     1     0     0
SMALL
bcc


@<TRIPOS>ATOM
      1 O            0.0000     0.0000     0.0000 o          1 L36      -0.668100
      2 C10          1.2160     0.0000     0.0000 c          1 L36       0.793100
      3 N2           1.8910     0.0000     1.1670 ns         1 L36      -0.604900
      4 C11          1.1580     0.0020     2.4360 c3         1 L36       0.087000
      5 C12          2.1370     0.0030     3.5810 c          1 L36       0.625100
      6 O2           1.6900     0.0050     4.8460 os         1 L36      -0.424900
      7 C13          2.6900     0.0060     5.8990 c3         1 L36       0.147400
      8 C14          1.9950     0.0080     7.2620 c3         1 L36      -0.096100
      9 O1           3.3250     0.0030     3.3610 o          1 L36      -0.560000
     10 N            1.8900    -0.0070    -1.1670 n          1 L36      -0.499800
     11 C2           3.3550    -0.0090    -1.1670 c3         1 L36       0.099000
     12 C1           3.8650    -1.4520    -1.1590 c3         1 L36      -0.111400
     13 C            5.3950    -1.4530    -1.1590 c3         1 L36      -0.093100
     14 C3           1.1580    -0.0160    -2.4360 c3         1 L36       0.175300
     15 C4           0.9070     1.4030    -2.8800 ca         1 L36      -0.125300
     16 C5           1.8310     2.0480    -3.6820 ca         1 L36      -0.107000
     17 C6           1.6040     3.3480    -4.0900 ca         1 L36      -0.150000
     18 C7           0.4470     4.0080    -3.6940 ca         1 L36       0.167600
     19 N1           0.2150     5.3220    -4.1060 nv         1 L36      -0.992200
     20 C8          -0.4780     3.3560    -2.8880 ca         1 L36      -0.150000
     21 C9          -0.2480     2.0550    -2.4880 ca         1 L36      -0.107000
     22 H1           2.8910     0.0440     1.1670 hn         1 L36       0.337500
     23 H2           0.5350     0.8870     2.4910 h1         1 L36       0.083700
     24 H3           0.5340    -0.8820     2.4940 h1         1 L36       0.083700
     25 H4           3.3080    -0.8790     5.8100 h1         1 L36       0.050700
     26 H5           3.3090     0.8900     5.8080 h1         1 L36       0.050700
     27 H6           1.3750    -0.8760     7.3520 hc         1 L36       0.049367
     28 H7           2.7410     0.0070     8.0480 hc         1 L36       0.049367
     29 H8           1.3780     0.8930     7.3520 hc         1 L36       0.049367
     30 H9           3.7160     0.5070    -0.2860 h1         1 L36       0.052700
     31 H10          3.7160     0.4960    -2.0540 h1         1 L36       0.052700
     32 H11          3.5040    -1.9670    -2.0400 hc         1 L36       0.050200
     33 H12          3.5040    -1.9570    -0.2710 hc         1 L36       0.050200
     34 H13          5.7560    -0.8100    -0.3650 hc         1 L36       0.036367
     35 H14          5.7560    -1.0870    -2.1120 hc         1 L36       0.036367
     36 H15          5.7550    -2.4620    -0.9980 hc         1 L36       0.036367
     37 H16          0.2110    -0.5250    -2.3030 h1         1 L36       0.064700
     38 H17          1.7430    -0.5310    -3.1880 h1         1 L36       0.064700
     39 H18          2.7330     1.5340    -3.9900 ha         1 L36       0.138000
     40 H19          2.3280     3.8530    -4.7180 ha         1 L36       0.134500
     41 H20         -0.2750     5.4990    -4.9600 hn         1 L36       0.426800
     42 H21          0.5410     6.0860    -3.5480 hn         1 L36       0.426800
     43 H22         -1.3820     3.8660    -2.5790 ha         1 L36       0.134500
     44 H23         -0.9700     1.5470    -1.8600 ha         1 L36       0.138000
@<TRIPOS>BOND
     1    19    18 1
     2    18    17 ar
     3    18    20 ar
     4    17    16 ar
     5    20    21 ar
     6    16    15 ar
     7    21    15 ar
     8    15    14 1
     9    14    10 1
    10     1     2 2
    11    10     2 1
    12    10    11 1
    13     2     3 1
    14     9     5 2
    15     7     8 1
    16     7     6 1
    17    11    12 1
    18     6     5 1
    19     5     4 1
    20     3     4 1
    21    12    13 1
    22     3    22 1
    23     4    23 1
    24     4    24 1
    25     7    25 1
    26     7    26 1
    27     8    27 1
    28     8    28 1
    29     8    29 1
    30    11    30 1
    31    11    31 1
    32    12    32 1
    33    12    33 1
    34    13    34 1
    35    13    35 1
    36    13    36 1
    37    14    37 1
    38    14    38 1
    39    16    39 1
    40    17    40 1
    41    19    41 1
    42    19    42 1
    43    20    43 1
    44    21    44 1
@<TRIPOS>SUBSTRUCTURE
     1 L36         1 TEMP              0 ****  ****    0 ROOT
