@<TRIPOS>MOLECULE
molecule
   48    49     1     0     0
SMALL
bcc


@<TRIPOS>ATOM
      1 N2A          0.0000     0.0000     0.0000 nv         1 L37      -1.028500
      2 N1           2.0310     0.0000     1.1570 nb         1 L37      -0.756000
      3 C2           1.3870     0.0000     0.0000 ca         1 L37       0.988900
      4 N3           2.0310     0.0050    -1.1570 nb         1 L37      -0.878000
      5 C4           3.3590     0.0050    -1.1980 ca         1 L37       0.694600
      6 O4A          4.0100     0.0100    -2.3880 oh         1 L37      -0.608300
      7 C5           4.0740    -0.0000    -0.0010 ca         1 L37      -0.188000
      8 C6           3.3590    -0.0050     1.1980 ca         1 L37       0.638200
      9 N7           4.0280    -0.0090     2.4180 ns         1 L37      -0.555400
     10 C8           3.3280    -0.0150     3.5710 c          1 L37       0.758100
     11 O8A          2.1140    -0.0150     3.5440 o          1 L37      -0.554100
     12 N9           3.9760    -0.0200     4.7530 ns         1 L37      -0.485100
     13 C1B          3.2570     0.0950     5.9420 ca         1 L37       0.045600
     14 C2B          3.7000    -0.5620     7.0860 ca         1 L37      -0.162000
     15 C3B          2.9930    -0.4520     8.2610 ca         1 L37      -0.075500
     16 C4B          1.8290     0.3210     8.3050 ca         1 L37      -0.113600
     17 C5B          1.3880     0.9800     7.1530 ca         1 L37      -0.075500
     18 C6B          2.1020     0.8690     5.9830 ca         1 L37      -0.162000
     19 C7B          1.0680     0.4420     9.5630 c          1 L37       0.654700
     20 O7B          1.4530    -0.1320    10.5640 o          1 L37      -0.647100
     21 N           -0.0530     1.1880     9.6040 ns         1 L37      -0.499900
     22 CA          -0.8080     1.3080    10.8530 c3         1 L37      -0.001300
     23 CB          -1.5080     2.6670    10.8980 c3         1 L37      -0.063400
     24 CG          -0.4640     3.7810    10.8250 c3         1 L37      -0.185400
     25 CD          -1.1540     5.1200    10.8690 c          1 L37       0.890600
     26 OE1         -2.3580     5.1760    10.9500 o          1 L37      -0.873800
     27 OE2         -0.4300     6.2490    10.8180 o          1 L37      -0.873800
     28 C           -1.8380     0.2100    10.9260 c          1 L37       0.893600
     29 O           -2.1800    -0.2280    11.9970 o          1 L37      -0.860300
     30 OXT         -2.3740    -0.2820     9.7980 o          1 L37      -0.860300
     31 HN21        -0.5000    -0.7240    -0.4760 hn         1 L37       0.449300
     32 HN22        -0.5000     0.7360     0.4580 hn         1 L37       0.449300
     33 HO4          3.5140    -0.4830    -3.0200 ho         1 L37       0.430000
     34 HN51         5.9790     0.8680     0.0370 hn         1 L37       0.420300
     35 HN52         5.9810    -0.8620    -0.0750 hn         1 L37       0.420300
     36 HN7          5.0290    -0.0190     2.4410 hn         1 L37       0.327500
     37 HN9          4.9740    -0.0890     4.7760 hn         1 L37       0.303500
     38 H2B          4.6020    -1.1610     7.0510 ha         1 L37       0.130500
     39 H3B          3.3380    -0.9640     9.1520 ha         1 L37       0.154500
     40 H5B          0.4880     1.5820     7.1840 ha         1 L37       0.154500
     41 H6B          1.7610     1.3790     5.0900 ha         1 L37       0.130500
     42 HN          -0.3910     1.6280     8.7720 hn         1 L37       0.309500
     43 HA          -0.1300     1.2230    11.6940 h1         1 L37       0.065700
     44 HB1         -2.0660     2.7550    11.8230 hc         1 L37       0.057700
     45 HB2         -2.1860     2.7520    10.0580 hc         1 L37       0.057700
     46 HG1          0.0940     3.6930     9.9010 hc         1 L37       0.022700
     47 HG2          0.2150     3.6960    11.6660 hc         1 L37       0.022700
     48 N5A          5.4800     0.0010    -0.0020 nv         1 L37      -0.964200
@<TRIPOS>BOND
     1     1     3 1
     2     1    31 1
     3     1    32 1
     4     2     3 ar
     5     2     8 ar
     6     3     4 ar
     7     4     5 ar
     8     5     6 1
     9     5     7 ar
    10     6    33 1
    11    48     7 1
    12    48    34 1
    13    48    35 1
    14     7     8 ar
    15     8     9 1
    16     9    10 1
    17     9    36 1
    18    10    11 2
    19    10    12 1
    20    12    13 1
    21    12    37 1
    22    13    14 ar
    23    13    18 ar
    24    14    15 ar
    25    14    38 1
    26    15    16 ar
    27    15    39 1
    28    16    17 ar
    29    16    19 1
    30    17    18 ar
    31    17    40 1
    32    18    41 1
    33    19    20 2
    34    19    21 1
    35    21    22 1
    36    21    42 1
    37    22    23 1
    38    22    28 1
    39    22    43 1
    40    23    24 1
    41    23    44 1
    42    23    45 1
    43    24    25 1
    44    24    46 1
    45    24    47 1
    46    25    26 1
    47    25    27 1
    48    28    29 1
    49    28    30 1
@<TRIPOS>SUBSTRUCTURE
     1 L37         1 TEMP              0 ****  ****    0 ROOT
