@<TRIPOS>MOLECULE
L37
   48    49     1     0     0
SMALL
bcc


@<TRIPOS>ATOM
      1 N2A          0.0000     0.0000     0.0000 nv         1 L37      -0.572500
      2 N1           2.0310     0.0000     1.1570 nb         1 L37      -0.636000
      3 C2           1.3870     0.0000     0.0000 ca         1 L37       0.761900
      4 N3           2.0310     0.0050    -1.1570 nb         1 L37      -0.777000
      5 C4           3.3590     0.0050    -1.1980 ca         1 L37       0.673600
      6 O4A          4.0100     0.0100    -2.3880 oh         1 L37      -0.601300
      7 C5           4.0740    -0.0000    -0.0010 ca         1 L37      -0.340000
      8 C6           3.3590    -0.0050     1.1980 ca         1 L37       0.454200
      9 N7           4.0280    -0.0090     2.4180 ns         1 L37      -0.125400
     10 C8           3.3280    -0.0150     3.5710 c          1 L37       0.525100
     11 O8A          2.1140    -0.0150     3.5440 o          1 L37      -0.603100
     12 N9           3.9760    -0.0200     4.7530 ns         1 L37      -0.039100
     13 C1B          3.2570     0.0950     5.9420 ca         1 L37      -0.111400
     14 C2B          3.7000    -0.5620     7.0860 ca         1 L37      -0.135000
     15 C3B          2.9930    -0.4520     8.2610 ca         1 L37      -0.052000
     16 C4B          1.8290     0.3210     8.3050 ca         1 L37      -0.107600
     17 C5B          1.3880     0.9800     7.1530 ca         1 L37      -0.052000
     18 C6B          2.1020     0.8690     5.9830 ca         1 L37      -0.135000
     19 C7B          1.0680     0.4420     9.5630 c          1 L37       0.554700
     20 O7B          1.4530    -0.1320    10.5640 o          1 L37      -0.698100
     21 N           -0.0530     1.1880     9.6040 ns         1 L37      -0.064900
     22 CA          -0.8080     1.3080    10.8530 c3         1 L37      -0.119300
     23 CB          -1.5080     2.6670    10.8980 c3         1 L37      -0.013400
     24 CG          -0.4640     3.7810    10.8250 c3         1 L37      -0.143400
     25 CD          -1.1540     5.1200    10.8690 c          1 L37       0.983600
     26 OE1         -2.3580     5.1760    10.9500 o          1 L37      -0.920300
     27 OE2         -0.4300     6.2490    10.8180 o          1 L37      -0.920300
     28 C           -1.8380     0.2100    10.9260 c          1 L37       0.986600
     29 O           -2.1800    -0.2280    11.9970 o          1 L37      -0.907300
     30 OXT         -2.3740    -0.2820     9.7980 o          1 L37      -0.907300
     31 HN21        -0.5000    -0.7240    -0.4760 hn         1 L37       0.278300
     32 HN22        -0.5000     0.7360     0.4580 hn         1 L37       0.278300
     33 HO4          3.5140    -0.4830    -3.0200 ho         1 L37       0.409000
     34 HN51         5.9790     0.8680     0.0370 hn         1 L37       0.261800
     35 HN52         5.9810    -0.8620    -0.0750 hn         1 L37       0.261800
     36 HN7          5.0290    -0.0190     2.4410 hn         1 L37       0.164500
     37 HN9          4.9740    -0.0890     4.7760 hn         1 L37       0.146500
     38 H2B          4.6020    -1.1610     7.0510 ha         1 L37       0.109500
     39 H3B          3.3380    -0.9640     9.1520 ha         1 L37       0.126000
     40 H5B          0.4880     1.5820     7.1840 ha         1 L37       0.126000
     41 H6B          1.7610     1.3790     5.0900 ha         1 L37       0.109500
     42 HN          -0.3910     1.6280     8.7720 hn         1 L37       0.166500
     43 HA          -0.1300     1.2230    11.6940 h1         1 L37       0.051700
     44 HB1         -2.0660     2.7550    11.8230 hc         1 L37       0.033200
     45 HB2         -2.1860     2.7520    10.0580 hc         1 L37       0.033200
     46 HG1          0.0940     3.6930     9.9010 hc         1 L37      -0.000300
     47 HG2          0.2150     3.6960    11.6660 hc         1 L37      -0.000300
     48 N5A          5.4800     0.0010    -0.0020 nv         1 L37      -0.515200
@<TRIPOS>BOND
     1     1     3 1   
     2     1    31 1   
     3     1    32 1   
     4     2     3 ar  
     5     2     8 ar  
     6     3     4 ar  
     7     4     5 ar  
     8     5     6 1   
     9     5     7 ar  
    10     6    33 1   
    11     7     8 ar  
    12     7    48 1   
    13     8     9 1   
    14     9    10 1   
    15     9    36 1   
    16    10    11 2   
    17    10    12 1   
    18    12    13 1   
    19    12    37 1   
    20    13    14 ar  
    21    13    18 ar  
    22    14    15 ar  
    23    14    38 1   
    24    15    16 ar  
    25    15    39 1   
    26    16    17 ar  
    27    16    19 1   
    28    17    18 ar  
    29    17    40 1   
    30    18    41 1   
    31    19    20 2   
    32    19    21 1   
    33    21    22 1   
    34    21    42 1   
    35    22    23 1   
    36    22    28 1   
    37    22    43 1   
    38    23    24 1   
    39    23    44 1   
    40    23    45 1   
    41    24    25 1   
    42    24    46 1   
    43    24    47 1   
    44    25    26 1   
    45    25    27 1   
    46    28    29 1   
    47    28    30 1   
    48    34    48 1   
    49    35    48 1   
@<TRIPOS>SUBSTRUCTURE
     1 L37         1 TEMP              0 ****  ****    0 ROOT
