@<TRIPOS>MOLECULE
L39
   72    72     1     0     0
SMALL
bcc


@<TRIPOS>ATOM
      1 I1          0.4160   -2.3370    3.0450 i         1 L39     -0.253900
      2 C18         7.9030    1.5850    5.1850 c3        1 L39     -0.088100
      3 C13         9.2460    1.1550    4.6230 c3        1 L39     -0.036000
      4 C12         9.8200   -0.0110    5.4240 c3        1 L39     -0.071400
      5 C11        10.0800    0.3400    6.8700 c3        1 L39     -0.040200
      6 C9         10.8340    1.6050    7.0810 c2        1 L39     -0.102400
      7 C10        11.5820    1.7940    8.2020 ce        1 L39     -0.079200
      8 C19         8.7350   -1.7280    9.9260 c3        1 L39     -0.112800
      9 C1         11.7300    0.7080    9.2130 c3        1 L39     -0.034200
     10 C2         12.1590    1.1680   10.5880 c3        1 L39     -0.109400
     11 C3         13.3160    2.1520   10.4950 c3        1 L39      0.144100
     12 O1         13.7220    2.5970   11.7840 oh        1 L39     -0.600800
     13 C4         12.8700    3.3930    9.7320 c3        1 L39     -0.034200
     14 C5         12.2930    3.0550    8.4030 ce        1 L39     -0.074200
     15 C6         12.4060    3.9300    7.3840 c2        1 L39     -0.165200
     16 C7         11.8300    3.6610    6.0500 c3        1 L39     -0.043200
     17 C8         10.6250    2.7240    6.1090 c3        1 L39     -0.014500
     18 C14        10.2820    2.2950    4.6740 c3        1 L39      0.041500
     19 C15         9.8070    3.4850    3.9140 c2        1 L39     -0.440300
     20 C16        10.4000    3.9400    2.8340 c1        1 L39      0.551600
     21 O16        10.9280    4.3720    1.8570 o         1 L39     -0.388500
     22 C17         9.0800    0.7240    3.1570 c3        1 L39     -0.042200
     23 C20         8.0250   -0.3060    2.9320 ce        1 L39     -0.176400
     24 C21         8.2700   -1.6180    3.0130 c2        1 L39     -0.181000
     25 C22         6.6950    0.2120    2.5160 c         1 L39      0.568300
     26 O22         6.5830    1.0700    1.6340 o         1 L39     -0.526100
     27 C24         4.2620   -0.3550    2.3840 c3        1 L39     -0.075400
     28 C25         3.0320   -0.8130    3.1630 c3        1 L39     -0.057700
     29 C27         2.5150    0.3010    4.0500 c3        1 L39     -0.100100
     30 C26         1.9690   -1.2710    2.1870 c3        1 L39      0.070500
     31 H1          4.7050    1.8580    5.9960 ha        1 L39      0.000500
     32 H2          7.4130    2.3240    4.5050 hc        1 L39      0.038700
     33 H3          7.2300    0.6970    5.2830 hc        1 L39      0.038700
     34 H4          8.0220    2.0500    6.1930 hc        1 L39      0.038700
     35 H5         10.7780   -0.3450    4.9430 hc        1 L39      0.044200
     36 H6          9.1050   -0.8750    5.3800 hc        1 L39      0.044200
     37 H7          9.0980    0.4260    7.4150 hc        1 L39      0.049700
     38 H8         10.6360   -0.5250    7.3280 hc        1 L39      0.049700
     39 H9          9.0080   -1.3220    8.9260 hc        1 L39      0.028200
     40 H10         9.2720   -1.1570   10.7160 hc        1 L39      0.028200
     41 H11         7.6390   -1.6290   10.0790 hc        1 L39      0.028200
     42 H12         9.0230   -2.8000    9.9830 hc        1 L39      0.028200
     43 H13        12.4840   -0.0300    8.8190 hc        1 L39      0.049200
     44 H14        10.7550    0.1570    9.3290 hc        1 L39      0.049200
     45 H15        11.3020    1.6620   11.1160 hc        1 L39      0.048200
     46 H16        12.4630    0.2790   11.2000 hc        1 L39      0.048200
     47 H17        13.9460    1.8080   12.2910 ho        1 L39      0.399000
     48 H18        14.1930    1.6690    9.9780 h1        1 L39      0.038700
     49 H19        12.0970    3.9340   10.3430 hc        1 L39      0.062700
     50 H20        13.7460    4.0850    9.6190 hc        1 L39      0.062700
     51 H21        12.9610    4.8740    7.4950 ha        1 L39      0.128000
     52 H22        12.6340    3.2130    5.4020 hc        1 L39      0.052700
     53 H23        11.5110    4.6220    5.5640 hc        1 L39      0.052700
     54 H24         9.7460    3.3160    6.5090 hc        1 L39      0.060700
     55 H25        11.2250    1.8950    4.2000 hc        1 L39      0.049700
     56 H26         8.9090    3.9980    4.2900 ha        1 L39      0.182000
     57 H27         8.8330    1.6330    2.5420 hc        1 L39      0.062200
     58 H28        10.0650    0.3260    2.7890 hc        1 L39      0.062200
     59 H29         5.3630    1.9150    5.8430 ha        1 L39      0.000500
     60 H30         9.2630   -2.0070    3.2800 ha        1 L39      0.120500
     61 H31         7.5100   -2.3830    2.8060 ha        1 L39      0.120500
     62 H34         5.7260   -1.3730    3.6240 hc        1 L39      0.068700
     63 H35         5.3380    0.3150    4.1520 hc        1 L39      0.068700
     64 H36         2.2070    1.1820    3.4360 hc        1 L39      0.042367
     65 H37         4.4390   -1.0430    1.5150 hc        1 L39      0.057200
     66 H38         4.0870    0.6700    1.9620 hc        1 L39      0.057200
     67 H39         3.3320   -1.6830    3.8140 hc        1 L39      0.057700
     68 H40         3.3100    0.6310    4.7630 hc        1 L39      0.042367
     69 H41         1.6340   -0.0440    4.6430 hc        1 L39      0.042367
     70 H42         1.5150   -0.3940    1.6710 h1        1 L39      0.073700
     71 H43         2.4110   -1.9480    1.4200 h1        1 L39      0.073700
     72 C23         5.5030   -0.3390    3.2510 c3        1 L39     -0.180400
@<TRIPOS>BOND
     1    1   30 1   
     2    2    3 1   
     3    2   32 1   
     4    2   33 1   
     5    2   34 1   
     6    3    4 1   
     7    3   18 1   
     8    3   22 1   
     9    4    5 1   
    10    4   35 1   
    11    4   36 1   
    12    5    6 1   
    13    5   37 1   
    14    5   38 1   
    15    6    7 2   
    16    6   17 1   
    17    7    9 1   
    18    7   14 1   
    19    8   39 1   
    20    8   40 1   
    21    8   41 1   
    22    8   42 1   
    23    9   10 1   
    24    9   43 1   
    25    9   44 1   
    26   10   11 1   
    27   10   45 1   
    28   10   46 1   
    29   11   12 1   
    30   11   13 1   
    31   11   48 1   
    32   12   47 1   
    33   13   14 1   
    34   13   49 1   
    35   13   50 1   
    36   14   15 2   
    37   15   16 1   
    38   15   51 1   
    39   16   17 1   
    40   16   52 1   
    41   16   53 1   
    42   17   18 1   
    43   17   54 1   
    44   18   19 1   
    45   18   55 1   
    46   19   20 2   
    47   19   56 1   
    48   20   21 2   
    49   22   23 1   
    50   22   57 1   
    51   22   58 1   
    52   23   24 2   
    53   23   25 1   
    54   24   60 1   
    55   24   61 1   
    56   25   26 2   
    57   25   72 1   
    58   27   28 1   
    59   27   65 1   
    60   27   66 1   
    61   27   72 1   
    62   28   29 1   
    63   28   30 1   
    64   28   67 1   
    65   29   64 1   
    66   29   68 1   
    67   29   69 1   
    68   30   70 1   
    69   30   71 1   
    70   31   59 1   
    71   62   72 1   
    72   63   72 1   
@<TRIPOS>SUBSTRUCTURE
     1 L39         1 TEMP              0 ****  ****    0 ROOT
