@<TRIPOS>MOLECULE
molecule
   20    21     1     0     0
SMALL
bcc


@<TRIPOS>ATOM
      1 S6           0.0000     0.0000     0.0000 s          1 L3B      -0.072400
      2 C1           1.7120     0.0000     0.0000 cs         1 L3B       0.430200
      3 N5           2.5080     0.0000     1.0890 nc         1 L3B      -0.651100
      4 C4           3.7570    -0.0010     0.6650 cd         1 L3B       0.632900
      5 N3           3.7340    -0.0030    -0.7000 nd         1 L3B      -0.263300
      6 N2           2.5060    -0.0080    -1.0900 nc         1 L3B      -0.169400
      7 C7           4.9630    -0.0000     1.5150 ca         1 L3B      -0.133900
      8 C12          6.2340    -0.0020     0.9320 ca         1 L3B      -0.069000
      9 C11          7.3570    -0.0000     1.7320 ca         1 L3B      -0.152000
     10 C10          7.2280     0.0020     3.1100 ca         1 L3B      -0.084000
     11 C9           5.9740     0.0020     3.6950 ca         1 L3B      -0.149000
     12 C8           4.8420     0.0080     2.9080 ca         1 L3B      -0.014300
     13 C13          3.4760     0.0160     3.5470 c3         1 L3B      -0.048800
     14 H12          6.3370    -0.0040    -0.1460 ha         1 L3B       0.153000
     15 H11          8.3420    -0.0010     1.2810 ha         1 L3B       0.140000
     16 H10          8.1140     0.0000     3.7340 ha         1 L3B       0.136000
     17 H9           5.8810     0.0060     4.7750 ha         1 L3B       0.141000
     18 H133         2.9310    -0.8700     3.2440 hc         1 L3B       0.057700
     19 H132         3.5820     0.0240     4.6250 hc         1 L3B       0.057700
     20 H131         2.9350     0.8990     3.2310 hc         1 L3B       0.057700
@<TRIPOS>BOND
     1     1     2 2
     2     2     6 1
     3     2     3 1
     4     6     5 2
     5    13    12 1
     6     3     4 2
     7     5     4 1
     8     4     7 1
     9    12     7 ar
    10    12    11 ar
    11     7     8 ar
    12    11    10 ar
    13     8     9 ar
    14    10     9 ar
    15     8    14 1
    16     9    15 1
    17    10    16 1
    18    11    17 1
    19    13    18 1
    20    13    19 1
    21    13    20 1
@<TRIPOS>SUBSTRUCTURE
     1 L3B         1 TEMP              0 ****  ****    0 ROOT
