@<TRIPOS>MOLECULE
L3B
   20    21     1     0     0
SMALL
bcc


@<TRIPOS>ATOM
      1 S6           0.0000     0.0000     0.0000 s          1 L3B      -0.149400
      2 C1           1.7120     0.0000     0.0000 cs         1 L3B       0.453200
      3 N5           2.5080     0.0000     1.0890 nc         1 L3B      -0.600100
      4 C4           3.7570    -0.0010     0.6650 cd         1 L3B       0.621900
      5 N3           3.7340    -0.0030    -0.7000 nd         1 L3B      -0.236300
      6 N2           2.5060    -0.0080    -1.0900 nc         1 L3B      -0.152400
      7 C7           4.9630    -0.0000     1.5150 ca         1 L3B      -0.150900
      8 C12          6.2340    -0.0020     0.9320 ca         1 L3B      -0.038000
      9 C11          7.3570    -0.0000     1.7320 ca         1 L3B      -0.128000
     10 C10          7.2280     0.0020     3.1100 ca         1 L3B      -0.050000
     11 C9           5.9740     0.0020     3.6950 ca         1 L3B      -0.126000
     12 C8           4.8420     0.0080     2.9080 ca         1 L3B      -0.012300
     13 C13          3.4760     0.0160     3.5470 c3         1 L3B       0.043200
     14 H12          6.3370    -0.0040    -0.1460 ha         1 L3B       0.122000
     15 H11          8.3420    -0.0010     1.2810 ha         1 L3B       0.111000
     16 H10          8.1140     0.0000     3.7340 ha         1 L3B       0.104000
     17 H9           5.8810     0.0060     4.7750 ha         1 L3B       0.115000
     18 H133         2.9310    -0.8700     3.2440 hc         1 L3B       0.024367
     19 H132         3.5820     0.0240     4.6250 hc         1 L3B       0.024367
     20 H131         2.9350     0.8990     3.2310 hc         1 L3B       0.024367
@<TRIPOS>BOND
     1     1     2 2   
     2     2     3 1   
     3     2     6 1   
     4     3     4 2   
     5     4     5 1   
     6     4     7 1   
     7     5     6 2   
     8     7     8 ar  
     9     7    12 ar  
    10     8     9 ar  
    11     8    14 1   
    12     9    10 ar  
    13     9    15 1   
    14    10    11 ar  
    15    10    16 1   
    16    11    12 ar  
    17    11    17 1   
    18    12    13 1   
    19    13    18 1   
    20    13    19 1   
    21    13    20 1   
@<TRIPOS>SUBSTRUCTURE
     1 L3B         1 TEMP              0 ****  ****    0 ROOT
