@<TRIPOS>MOLECULE
L3G
   79    85     1     0     0
SMALL
bcc


@<TRIPOS>ATOM
      1 C1           0.0000     0.0000     0.0000 cc         1 L3G       0.486500
      2 C2           1.4630     0.0000     0.0000 ca         1 L3G      -0.505500
      3 C3          -0.8780     0.0010    -1.1950 ca         1 L3G      -0.080900
      4 N1          -0.3920    -0.0080     1.2520 nd         1 L3G      -0.615100
      5 C4           1.8610     0.0000     1.3490 ca         1 L3G       0.318800
      6 C5           2.4560     0.0140    -0.9920 ca         1 L3G       0.625200
      7 C6          -1.9680     0.8680    -1.2580 ca         1 L3G      -0.171000
      8 C7          -0.6130    -0.8630    -2.2560 ca         1 L3G      -0.095000
      9 N2           0.7220    -0.0080     2.0990 na         1 L3G       0.380200
     10 N3           3.1640     0.0050     1.6320 nb         1 L3G      -0.656000
     11 N4           3.7300     0.0180    -0.6110 nb         1 L3G      -0.693000
     12 N5           2.1190     0.0200    -2.3320 nv         1 L3G      -0.651500
     13 C8          -2.7850     0.8670    -2.3740 ca         1 L3G       0.087100
     14 C9          -1.4290    -0.8610    -3.3680 ca         1 L3G      -0.109000
     15 C11          4.0580     0.0130     0.6690 ca         1 L3G       0.676900
     16 C12         -2.5190    -0.0030    -3.4310 ca         1 L3G      -0.104400
     17 O1          -3.8490     1.7100    -2.4390 os         1 L3G      -0.302900
     18 C13         -2.1530     1.1720     9.3730 c3         1 L3G       0.204900
     19 C14         -2.1100    -1.1300     9.3840 c3         1 L3G       0.204900
     20 N6          -3.3450    -0.0030    -4.5600 ns         1 L3G      -0.054100
     21 C15         -3.8590     2.4570    -1.2200 c3         1 L3G       0.221700
     22 C16         -1.9170     1.2630     7.8640 c3         1 L3G      -0.073900
     23 C17         -1.8700    -1.2270     7.8750 c3         1 L3G      -0.073900
     24 C18         -3.3510    -1.0650    -5.3900 c          1 L3G       0.621300
     25 C19         -1.1300     0.0310     7.4050 c3         1 L3G       0.122500
     26 C20         -4.1080    -1.0090    -6.6490 cc         1 L3G      -0.333300
     27 O2          -2.7280    -2.0680    -5.0990 o          1 L3G      -0.627100
     28 N7          -1.0060    -0.0280     5.9440 n3         1 L3G      -0.510600
     29 N8          -4.7310     0.1130    -7.1610 na         1 L3G       0.407600
     30 C21         -4.3100    -2.0550    -7.4940 cd         1 L3G      -0.055200
     31 C22         -0.2200     1.1550     5.5780 c3         1 L3G       0.134800
     32 C23         -0.2220    -1.2080     5.5650 c3         1 L3G       0.134800
     33 C24         -5.3330    -0.2180    -8.3510 ca         1 L3G      -0.198200
     34 C25         -4.7470     1.4380    -6.5360 c3         1 L3G      -0.028400
     35 C26         -5.0840    -1.5860    -8.5830 ca         1 L3G      -0.125800
     36 C27         -0.0720     1.2280     4.0570 c3         1 L3G      -0.040400
     37 C28         -0.0750    -1.2650     4.0440 c3         1 L3G      -0.040400
     38 C29         -6.0800     0.5060    -9.2750 ca         1 L3G      -0.114000
     39 C30         -5.5910    -2.1970    -9.7370 ca         1 L3G      -0.028000
     40 C10          0.6710    -0.0160     3.5630 c3         1 L3G      -0.033000
     41 C31         -6.5690    -0.1180   -10.4020 ca         1 L3G      -0.070000
     42 C32         -6.3230    -1.4660   -10.6270 ca         1 L3G      -0.137000
     43 O3          -2.9210     0.0070     9.6710 os         1 L3G      -0.389600
     44 H6          -2.1730     1.5430    -0.4360 ha         1 L3G       0.143000
     45 H7           0.2360    -1.5340    -2.2090 ha         1 L3G       0.118000
     46 H5N1         2.2020    -0.8190    -2.8720 hn         1 L3G       0.286800
     47 H5N2         1.8550     0.8760    -2.7780 hn         1 L3G       0.286800
     48 H9          -1.2240    -1.5350    -4.1910 ha         1 L3G       0.170000
     49 H11          5.1080     0.0160     0.9360 h5         1 L3G      -0.003900
     50 H132        -1.1990     1.1130     9.8830 h1         1 L3G       0.007200
     51 H141        -2.6140    -2.0270     9.7250 h1         1 L3G       0.007200
     52 H142        -1.1590    -1.0310     9.8930 h1         1 L3G       0.007200
     53 HA          -3.9990     0.7410    -4.6990 hn         1 L3G       0.192500
     54 H151        -2.9330     3.0120    -1.1290 h1         1 L3G       0.006033
     55 H152        -4.6940     3.1480    -1.2270 h1         1 L3G       0.006033
     56 H153        -3.9580     1.7790    -0.3810 h1         1 L3G       0.006033
     57 H161        -2.8700     1.2950     7.3500 hc         1 L3G       0.034200
     58 H162        -1.3490     2.1580     7.6400 hc         1 L3G       0.034200
     59 H171        -2.8210    -1.2990     7.3620 hc         1 L3G       0.034200
     60 H172        -1.2680    -2.1020     7.6600 hc         1 L3G       0.034200
     61 H19         -0.1370     0.0540     7.8370 h1         1 L3G       0.011700
     62 H21         -4.0160    -3.0820    -7.3170 ha         1 L3G       0.142000
     63 H221         0.7460     1.1090     6.0660 h1         1 L3G       0.018700
     64 H222        -0.7460     2.0480     5.8940 h1         1 L3G       0.018700
     65 H231         0.7630    -1.1440     6.0120 h1         1 L3G       0.018700
     66 H232        -0.7250    -2.1010     5.9160 h1         1 L3G       0.018700
     67 H251        -3.7340     1.7380    -6.2980 h1         1 L3G       0.027700
     68 H252        -5.3360     1.4030    -5.6280 h1         1 L3G       0.027700
     69 H253        -5.1830     2.1550    -7.2210 h1         1 L3G       0.027700
     70 H271         0.4910     2.1140     3.7910 hc         1 L3G       0.035700
     71 H272        -1.0540     1.2670     3.6010 hc         1 L3G       0.035700
     72 H281        -1.0560    -1.2970     3.5870 hc         1 L3G       0.035700
     73 H282         0.4870    -2.1490     3.7680 hc         1 L3G       0.035700
     74 H29         -6.2780     1.5580    -9.1080 ha         1 L3G       0.100000
     75 H30         -5.4050    -3.2480    -9.9210 ha         1 L3G       0.103000
     76 H10          1.6770    -0.0190     3.9650 h1         1 L3G       0.058700
     77 H31         -7.1520     0.4480   -11.1190 ha         1 L3G       0.101000
     78 H32         -6.7140    -1.9410   -11.5180 ha         1 L3G       0.104000
     79 H131        -2.6920     2.0510     9.7060 h1         1 L3G       0.007200
@<TRIPOS>BOND
     1     1     2 1   
     2     1     3 1   
     3     1     4 2   
     4     2     5 ar  
     5     2     6 ar  
     6     3     7 ar  
     7     3     8 ar  
     8     4     9 1   
     9     5     9 1   
    10     5    10 ar  
    11     6    11 ar  
    12     6    12 1   
    13     7    13 ar  
    14     7    44 1   
    15     8    14 ar  
    16     8    45 1   
    17     9    40 1   
    18    10    15 ar  
    19    11    15 ar  
    20    12    46 1   
    21    12    47 1   
    22    13    16 ar  
    23    13    17 1   
    24    14    16 ar  
    25    14    48 1   
    26    15    49 1   
    27    16    20 1   
    28    17    21 1   
    29    18    22 1   
    30    18    43 1   
    31    18    50 1   
    32    18    79 1   
    33    19    23 1   
    34    19    43 1   
    35    19    51 1   
    36    19    52 1   
    37    20    24 1   
    38    20    53 1   
    39    21    54 1   
    40    21    55 1   
    41    21    56 1   
    42    22    25 1   
    43    22    57 1   
    44    22    58 1   
    45    23    25 1   
    46    23    59 1   
    47    23    60 1   
    48    24    26 1   
    49    24    27 2   
    50    25    28 1   
    51    25    61 1   
    52    26    29 1   
    53    26    30 2   
    54    28    31 1   
    55    28    32 1   
    56    29    33 1   
    57    29    34 1   
    58    30    35 1   
    59    30    62 1   
    60    31    36 1   
    61    31    63 1   
    62    31    64 1   
    63    32    37 1   
    64    32    65 1   
    65    32    66 1   
    66    33    35 ar  
    67    33    38 ar  
    68    34    67 1   
    69    34    68 1   
    70    34    69 1   
    71    35    39 ar  
    72    36    40 1   
    73    36    70 1   
    74    36    71 1   
    75    37    40 1   
    76    37    72 1   
    77    37    73 1   
    78    38    41 ar  
    79    38    74 1   
    80    39    42 ar  
    81    39    75 1   
    82    40    76 1   
    83    41    42 ar  
    84    41    77 1   
    85    42    78 1   
@<TRIPOS>SUBSTRUCTURE
     1 L3G         1 TEMP              0 ****  ****    0 ROOT
