@<TRIPOS>MOLECULE
L3L
   37    39     1     0     0
SMALL
bcc


@<TRIPOS>ATOM
      1 C1         -0.2790   -0.4280   -0.0700 ca        1 L3L     -0.101000
      2 C2          1.1060   -0.4510   -0.2120 ca        1 L3L     -0.059000
      3 C3         -0.8650   -0.2870    1.1920 ca        1 L3L     -0.045000
      4 C4          1.3850   -0.1780    2.1670 ca        1 L3L     -0.118600
      5 C5          1.9630   -0.3230    0.9060 ca        1 L3L     -0.138600
      6 C6         -0.0290   -0.1690    2.2910 ca        1 L3L     -0.084300
      7 C7          1.9430   -0.0370    3.5650 c         1 L3L      0.714100
      8 C8          3.3930   -0.3920    0.5840 c         1 L3L      0.568700
      9 C9         -0.4020   -0.0270    3.7470 c3        1 L3L      0.121300
     10 C10         1.6790    1.4250    6.3580 c3        1 L3L     -0.095400
     11 C11         1.6430   -1.0710    6.5310 c3        1 L3L     -0.095400
     12 C12         1.6720    1.4900    7.8850 c3        1 L3L      0.166300
     13 C13         1.6390   -0.9260    8.0520 c3        1 L3L      0.166300
     14 C14         0.9610    0.1490    5.8890 c3        1 L3L      0.119700
     15 N15         2.2450    0.3110    8.4990 n3        1 L3L     -0.825200
     16 N16         0.8810    0.0520    4.4420 n         1 L3L     -0.434800
     17 N17         4.3920    0.0820    1.5970 n4        1 L3L     -0.748400
     18 O18         3.1540    0.0080    3.8750 o         1 L3L     -0.704500
     19 O19         3.8930   -0.7850   -0.4640 o         1 L3L     -0.426100
     20 H1         -0.9180   -0.5270   -0.9650 ha        1 L3L      0.176000
     21 H2          1.5490   -0.5780   -1.2170 ha        1 L3L      0.177000
     22 H3         -1.9620   -0.2750    1.3060 ha        1 L3L      0.175000
     23 H11         2.6960   -1.1530    6.1540 hc        1 L3L      0.062700
     24 H11A        1.0980   -2.0110    6.2620 hc        1 L3L      0.062700
     25 H12         2.2930    2.3740    8.2080 h1        1 L3L      0.040200
     26 H12A        0.6100    1.6770    8.2250 h1        1 L3L      0.040200
     27 H13         2.2370   -1.7730    8.4940 h1        1 L3L      0.040200
     28 H13A        0.5730   -1.0350    8.4130 h1        1 L3L      0.040200
     29 H14        -0.1100    0.1900    6.2570 h1        1 L3L      0.067700
     30 HN15        2.2080    0.3810    9.4990 hn        1 L3L      0.382800
     31 HN17        5.3160    0.1950    1.1660 hn        1 L3L      0.480467
     32 HN1A        4.4520   -0.6050    2.3710 hn        1 L3L      0.480467
     33 H9         -0.9910   -0.9170    4.1060 h1        1 L3L      0.095700
     34 H17        -1.0020    0.9080    3.9280 h1        1 L3L      0.095700
     35 H10         1.1610    2.3350    5.9620 hc        1 L3L      0.062700
     36 H173        4.0840    0.9660    2.0220 hn        1 L3L      0.480467
     37 H10A        2.7330    1.4240    5.9770 hc        1 L3L      0.062700
@<TRIPOS>BOND
     1    1    2 ar  
     2    1    3 ar  
     3    1   20 1   
     4    2    5 ar  
     5    2   21 1   
     6    3    6 ar  
     7    3   22 1   
     8    4    5 ar  
     9    4    6 ar  
    10    4    7 1   
    11    5    8 1   
    12    6    9 1   
    13    7   16 1   
    14    7   18 2   
    15    8   17 1   
    16    8   19 2   
    17    9   16 1   
    18    9   33 1   
    19    9   34 1   
    20   10   12 1   
    21   10   14 1   
    22   10   35 1   
    23   10   37 1   
    24   11   13 1   
    25   11   14 1   
    26   11   23 1   
    27   11   24 1   
    28   12   15 1   
    29   12   25 1   
    30   12   26 1   
    31   13   15 1   
    32   13   27 1   
    33   13   28 1   
    34   14   16 1   
    35   14   29 1   
    36   15   30 1   
    37   17   31 1   
    38   17   32 1   
    39   17   36 1   
@<TRIPOS>SUBSTRUCTURE
     1 L3L         1 TEMP              0 ****  ****    0 ROOT
