@<TRIPOS>MOLECULE
L40
   49    50     1     0     0
SMALL
bcc


@<TRIPOS>ATOM
      1 C15          0.0000     0.0000     0.0000 ca         1 L40      -0.117000
      2 C14          1.3830     0.0000     0.0000 ca         1 L40      -0.002000
      3 C12          1.3920    -0.0010     2.3940 ca         1 L40       0.007000
      4 C4          -1.3810     0.7970     8.1380 cc         1 L40      -0.265600
      5 C3          -0.4560     1.1630     7.1310 cc         1 L40       0.000700
      6 C11          0.0030     0.0000     2.3980 ca         1 L40      -0.116400
      7 C16         -0.6920    -0.0000     1.1960 ca         1 L40      -0.070300
      8 C13          2.0780     0.0000     1.1950 ca         1 L40      -0.146500
      9 C7          -0.8580     0.5540     5.9810 cd         1 L40      -0.433900
     10 C5          -2.3190    -0.0320     7.5440 cd         1 L40      -0.262600
     11 C8          -0.1920     0.6560     4.6770 c          1 L40       0.636700
     12 C26         -3.4990    -0.6670     8.2350 c3         1 L40       0.101200
     13 C29         -1.9700     2.5180     9.9600 c3         1 L40      -0.089100
     14 C2           0.7460     2.0570     7.2990 c3         1 L40       0.037900
     15 N6          -1.9980    -0.1730     6.2490 na         1 L40       0.437900
     16 N10         -0.6940     0.0010     3.6110 ns         1 L40      -0.048100
     17 N21          4.3310     1.5810     1.1880 n7         1 L40      -0.580100
     18 O28         -0.8210     0.4990    10.3740 o          1 L40      -0.555100
     19 O9           0.8140     1.3300     4.5580 o          1 L40      -0.631100
     20 O19          4.2450    -0.5450     2.4370 o          1 L40      -0.588300
     21 O20          4.2370    -0.5440    -0.0620 o          1 L40      -0.588300
     22 C17         -2.1980     0.0000     1.1950 c3         1 L40       0.057200
     23 S18          3.8390    -0.0000     1.1890 sy         1 L40       1.042200
     24 H1          -0.5410    -0.0000    -0.9380 ha         1 L40       0.112000
     25 H2           1.9240     0.0000    -0.9390 ha         1 L40       0.124000
     26 H3           1.9360    -0.0000     3.3310 ha         1 L40       0.159000
     27 H4          -4.1870     0.1060     8.5570 hc         1 L40       0.012700
     28 H5          -3.1550    -1.2260     9.0960 hc         1 L40       0.012700
     29 H6          -4.0020    -1.3350     7.5470 hc         1 L40       0.012700
     30 H7          -2.7330     2.3340    10.7070 hc         1 L40       0.024033
     31 H8          -2.4170     2.9990     9.0980 hc         1 L40       0.024033
     32 H9          -1.2050     3.1620    10.3760 hc         1 L40       0.024033
     33 H10          2.1430     1.2990     8.7450 hc         1 L40       0.005367
     34 H11          2.8300     1.5610     7.1370 hc         1 L40       0.005367
     35 H12          1.7720     0.1740     7.4310 hc         1 L40       0.005367
     36 H13          0.5510     2.7820     8.0800 hc         1 L40       0.028700
     37 H14          0.9440     2.5750     6.3680 hc         1 L40       0.028700
     38 H15          4.6650     2.1500     3.1740 h1         1 L40       0.005033
     39 H16          2.9970     2.3330     2.6150 h1         1 L40       0.005033
     40 H17          4.2390     3.4730     2.0790 h1         1 L40       0.005033
     41 H18         -2.5060    -0.7200     5.5830 hn         1 L40       0.104700
     42 H19         -1.5450    -0.5180     3.6980 hn         1 L40       0.159500
     43 H20          4.8600     1.9400     0.4180 hn         1 L40       0.344800
     44 H21         -2.5590     0.8310     1.7890 hc         1 L40       0.010367
     45 H22         -2.5600    -0.9300     1.6180 hc         1 L40       0.010367
     46 H23         -2.5590     0.0990     0.1780 hc         1 L40       0.010367
     47 C27         -1.3470     1.2100     9.5450 c          1 L40       0.669700
     48 C22          4.0390     2.4400     2.3390 c3         1 L40       0.260100
     49 C1           1.9610     1.2110     7.6810 c3         1 L40       0.012900
@<TRIPOS>BOND
     1     1     2 ar  
     2     1     7 ar  
     3     1    24 1   
     4     2     8 ar  
     5     2    25 1   
     6     3     6 ar  
     7     3     8 ar  
     8     3    26 1   
     9     4     5 1   
    10     4    10 2   
    11     4    47 1   
    12     5     9 2   
    13     5    14 1   
    14     6     7 ar  
    15     6    16 1   
    16     7    22 1   
    17     8    23 1   
    18     9    11 1   
    19     9    15 1   
    20    10    12 1   
    21    10    15 1   
    22    11    16 1   
    23    11    19 2   
    24    12    27 1   
    25    12    28 1   
    26    12    29 1   
    27    13    30 1   
    28    13    31 1   
    29    13    32 1   
    30    13    47 1   
    31    14    36 1   
    32    14    37 1   
    33    14    49 1   
    34    15    41 1   
    35    16    42 1   
    36    17    23 1   
    37    17    43 1   
    38    17    48 1   
    39    18    47 2   
    40    20    23 2   
    41    21    23 2   
    42    22    44 1   
    43    22    45 1   
    44    22    46 1   
    45    33    49 1   
    46    34    49 1   
    47    35    49 1   
    48    38    48 1   
    49    39    48 1   
    50    40    48 1   
@<TRIPOS>SUBSTRUCTURE
     1 L40         1 TEMP              0 ****  ****    0 ROOT
