@<TRIPOS>MOLECULE
molecule
   49    50     1     0     0
SMALL
bcc


@<TRIPOS>ATOM
      1 C15          0.0000     0.0000     0.0000 ca         1 L40      -0.135000
      2 C14          1.3830     0.0000     0.0000 ca         1 L40      -0.038000
      3 C12          1.3920    -0.0010     2.3940 ca         1 L40      -0.025000
      4 C4          -1.3810     0.7970     8.1380 cc         1 L40      -0.261600
      5 C3          -0.4560     1.1630     7.1310 cc         1 L40      -0.014300
      6 C11          0.0030     0.0000     2.3980 ca         1 L40       0.033600
      7 C16         -0.6920    -0.0000     1.1960 ca         1 L40      -0.063300
      8 C13          2.0780     0.0000     1.1950 ca         1 L40      -0.303500
      9 C7          -0.8580     0.5540     5.9810 cd         1 L40      -0.216900
     10 C5          -2.3190    -0.0320     7.5440 cd         1 L40      -0.046600
     11 C8          -0.1920     0.6560     4.6770 c          1 L40       0.711700
     12 C26         -3.4990    -0.6670     8.2350 c3         1 L40      -0.030800
     13 C29         -1.9700     2.5180     9.9600 c3         1 L40      -0.189100
     14 C2           0.7460     2.0570     7.2990 c3         1 L40      -0.022100
     15 N6          -1.9980    -0.1730     6.2490 na         1 L40      -0.141100
     16 N10         -0.6940     0.0010     3.6110 ns         1 L40      -0.481100
     17 N21          4.3310     1.5810     1.1880 n7         1 L40      -0.917100
     18 O28         -0.8210     0.4990    10.3740 o          1 L40      -0.517100
     19 O9           0.8140     1.3300     4.5580 o          1 L40      -0.590100
     20 O19          4.2450    -0.5450     2.4370 o          1 L40      -0.636800
     21 O20          4.2370    -0.5440    -0.0620 o          1 L40      -0.636800
     22 C17         -2.1980     0.0000     1.1950 c3         1 L40      -0.054800
     23 S18          3.8390    -0.0000     1.1890 sy         1 L40       1.427200
     24 H1          -0.5410    -0.0000    -0.9380 ha         1 L40       0.139000
     25 H2           1.9240     0.0000    -0.9390 ha         1 L40       0.152000
     26 H3           1.9360    -0.0000     3.3310 ha         1 L40       0.180000
     27 H4          -4.1870     0.1060     8.5570 hc         1 L40       0.055700
     28 H5          -3.1550    -1.2260     9.0960 hc         1 L40       0.055700
     29 H6          -4.0020    -1.3350     7.5470 hc         1 L40       0.055700
     30 H7          -2.7330     2.3340    10.7070 hc         1 L40       0.061033
     31 H8          -2.4170     2.9990     9.0980 hc         1 L40       0.061033
     32 H9          -1.2050     3.1620    10.3760 hc         1 L40       0.061033
     33 H10          2.1430     1.2990     8.7450 hc         1 L40       0.039367
     34 H11          2.8300     1.5610     7.1370 hc         1 L40       0.039367
     35 H12          1.7720     0.1740     7.4310 hc         1 L40       0.039367
     36 H13          0.5510     2.7820     8.0800 hc         1 L40       0.059200
     37 H14          0.9440     2.5750     6.3680 hc         1 L40       0.059200
     38 H15          4.6650     2.1500     3.1740 h1         1 L40       0.045367
     39 H16          2.9970     2.3330     2.6150 h1         1 L40       0.045367
     40 H17          4.2390     3.4730     2.0790 h1         1 L40       0.045367
     41 H18         -2.5060    -0.7200     5.5830 hn         1 L40       0.293700
     42 H19         -1.5450    -0.5180     3.6980 hn         1 L40       0.315500
     43 H20          4.8600     1.9400     0.4180 hn         1 L40       0.453800
     44 H21         -2.5590     0.8310     1.7890 hc         1 L40       0.047033
     45 H22         -2.5600    -0.9300     1.6180 hc         1 L40       0.047033
     46 H23         -2.5590     0.0990     0.1780 hc         1 L40       0.047033
     47 C27         -1.3470     1.2100     9.5450 c          1 L40       0.610700
     48 C22          4.0390     2.4400     2.3390 c3         1 L40       0.222100
     49 C1           1.9610     1.2110     7.6810 c3         1 L40      -0.082100
@<TRIPOS>BOND
     1    22     7 1
     2    49    14 1
     3     1     7 ar
     4     1     2 ar
     5     7     6 ar
     6    14     5 1
     7     2     8 ar
     8     6    16 1
     9     6     3 ar
    10    16    11 1
    11    13    47 1
    12    18    47 2
    13    47     4 1
    14     5     4 1
    15     5     9 2
    16     4    10 2
    17    11     9 1
    18    11    19 2
    19     8     3 ar
    20     8    23 1
    21     9    15 1
    22    10    15 1
    23    10    12 1
    24    20    23 2
    25    23    17 1
    26    23    21 2
    27    17    48 1
    28     1    24 1
    29     2    25 1
    30     3    26 1
    31    12    27 1
    32    12    28 1
    33    12    29 1
    34    13    30 1
    35    13    31 1
    36    13    32 1
    37    49    33 1
    38    49    34 1
    39    49    35 1
    40    14    36 1
    41    14    37 1
    42    48    38 1
    43    48    39 1
    44    48    40 1
    45    15    41 1
    46    16    42 1
    47    17    43 1
    48    22    44 1
    49    22    45 1
    50    22    46 1
@<TRIPOS>SUBSTRUCTURE
     1 L40         1 TEMP              0 ****  ****    0 ROOT
