@<TRIPOS>MOLECULE
L41
   54    55     1     0     0
SMALL
bcc


@<TRIPOS>ATOM
      1 C1          0.1260    0.0590    0.0080 ca        1 L41     -0.161300
      2 C2          1.5240   -0.0670    0.0850 ca        1 L41      0.199100
      3 C3         -0.6260   -0.0670    1.2010 ca        1 L41      0.234100
      4 C4         -0.5570    0.3270   -1.2870 c3        1 L41     -0.016100
      5 C5          2.1600   -0.3100    1.3170 ca        1 L41     -0.255000
      6 O6          2.1970    0.0650   -1.1070 os        1 L41     -0.317900
      7 C7         -0.0020   -0.3140    2.4470 ca        1 L41     -0.304600
      8 O8         -1.9740    0.0690    1.0260 oh        1 L41     -0.502100
      9 C9         -1.1190   -0.9430   -1.9010 c3        1 L41     -0.075400
     10 C10         1.3990   -0.4300    2.4650 ca        1 L41     -0.025000
     11 C11         3.6310   -0.0090   -1.0390 c3        1 L41      0.127400
     12 C12        -0.7580   -0.4500    3.6960 c         1 L41      0.598700
     13 C13        -1.8060   -0.6570   -3.2110 c3        1 L41     -0.091100
     14 C14         4.1190    0.2030   -2.4600 c3        1 L41     -0.092400
     15 C15         0.0050   -0.7540    4.9500 c3        1 L41     -0.195100
     16 O16        -1.9950   -0.3250    3.7510 o         1 L41     -0.588100
     17 C17         5.6360    0.1280   -2.4830 c3        1 L41      0.132400
     18 O18         6.0270    0.3330   -3.8450 os        1 L41     -0.343900
     19 C19         7.4140    0.3290   -3.9980 ca        1 L41      0.002100
     20 C20         8.1550    1.4830   -3.6980 ca        1 L41     -0.105000
     21 C21         8.0330   -0.8030   -4.5340 ca        1 L41     -0.105000
     22 C22         9.5200    1.5000   -3.9320 ca        1 L41     -0.194500
     23 C23         9.4040   -0.7890   -4.7760 ca        1 L41     -0.194500
     24 C24        10.1570    0.3570   -4.4700 ca        1 L41      0.164100
     25 O25        11.5050    0.4770   -4.6490 os        1 L41     -0.283900
     26 C26        12.1890   -0.6800   -5.1480 c3        1 L41     -0.012600
     27 C27        13.7090   -0.3310   -5.1810 c         1 L41      0.926600
     28 O28        14.1830    0.0190   -6.2930 o         1 L41     -0.818300
     29 O29        14.3560   -0.4880   -4.1140 o         1 L41     -0.818300
     30 H4          0.1660    0.8010   -2.0040 hc        1 L41      0.058200
     31 H4A        -1.3960    1.0550   -1.1150 hc        1 L41      0.058200
     32 H5          3.2520   -0.4080    1.3770 ha        1 L41      0.146000
     33 HO8        -2.4360    0.0210    1.8790 ho        1 L41      0.459000
     34 H9         -0.2880   -1.6790   -2.0610 hc        1 L41      0.043700
     35 H9A        -1.8460   -1.4050   -1.1810 hc        1 L41      0.043700
     36 H10         1.9200   -0.6220    3.4170 ha        1 L41      0.133000
     37 H11         3.9320   -1.0180   -0.6530 h1        1 L41      0.043700
     38 H11A        4.0140    0.7920   -0.3550 h1        1 L41      0.043700
     39 H13        -2.2150   -1.6000   -3.6470 hc        1 L41      0.030700
     40 H13A       -2.6500    0.0600   -3.0660 hc        1 L41      0.030700
     41 H13B       -1.0890   -0.2110   -3.9430 hc        1 L41      0.030700
     42 H14         3.7790    1.2000   -2.8420 hc        1 L41      0.070200
     43 H14A        3.6870   -0.5770   -3.1380 hc        1 L41      0.070200
     44 H15         0.5680   -1.7120    4.8350 hc        1 L41      0.064700
     45 H15A        0.7260    0.0710    5.1700 hc        1 L41      0.064700
     46 H15B       -0.6990   -0.8520    5.8120 hc        1 L41      0.064700
     47 H17         6.0900    0.9250   -1.8370 h1        1 L41      0.031200
     48 H17A        5.9960   -0.8770   -2.1370 h1        1 L41      0.031200
     49 H20         7.6450    2.3640   -3.2830 ha        1 L41      0.127500
     50 H21         7.4340   -1.6930   -4.7710 ha        1 L41      0.127500
     51 H22        10.1270    2.3880   -3.7080 ha        1 L41      0.148000
     52 H23         9.8920   -1.6750   -5.2060 ha        1 L41      0.148000
     53 H26        11.8180   -0.9100   -6.1780 h1        1 L41      0.022200
     54 H26A       12.0110   -1.5450   -4.4610 h1        1 L41      0.022200
@<TRIPOS>BOND
     1    1    2 ar  
     2    1    3 ar  
     3    1    4 1   
     4    2    5 ar  
     5    2    6 1   
     6    3    7 ar  
     7    3    8 1   
     8    4    9 1   
     9    4   30 1   
    10    4   31 1   
    11    5   10 ar  
    12    5   32 1   
    13    6   11 1   
    14    7   10 ar  
    15    7   12 1   
    16    8   33 1   
    17    9   13 1   
    18    9   34 1   
    19    9   35 1   
    20   10   36 1   
    21   11   14 1   
    22   11   37 1   
    23   11   38 1   
    24   12   15 1   
    25   12   16 2   
    26   13   39 1   
    27   13   40 1   
    28   13   41 1   
    29   14   17 1   
    30   14   42 1   
    31   14   43 1   
    32   15   44 1   
    33   15   45 1   
    34   15   46 1   
    35   17   18 1   
    36   17   47 1   
    37   17   48 1   
    38   18   19 1   
    39   19   20 ar  
    40   19   21 ar  
    41   20   22 ar  
    42   20   49 1   
    43   21   23 ar  
    44   21   50 1   
    45   22   24 ar  
    46   22   51 1   
    47   23   24 ar  
    48   23   52 1   
    49   24   25 1   
    50   25   26 1   
    51   26   27 1   
    52   26   53 1   
    53   26   54 1   
    54   27   28 1   
    55   27   29 1   
@<TRIPOS>SUBSTRUCTURE
     1 L41         1 TEMP              0 ****  ****    0 ROOT
