@<TRIPOS>MOLECULE
molecule
   54    55     1     0     0
SMALL
bcc


@<TRIPOS>ATOM
      1 C1           0.0000     0.0000     0.0000 ca         1 L41      -0.156300
      2 C2           1.3870     0.0000     0.0000 ca         1 L41       0.191100
      3 C3          -0.6910     0.0060     1.1990 ca         1 L41       0.203100
      4 C4          -0.7540     0.0000    -1.3050 c3         1 L41      -0.019100
      5 C5           2.0900     0.0000     1.2020 ca         1 L41      -0.243000
      6 O6           2.0630    -0.0020    -1.1770 os         1 L41      -0.318900
      7 C7           0.0220     0.0060     2.4120 ca         1 L41      -0.254600
      8 O8          -2.0470     0.0130     1.2050 oh         1 L41      -0.499100
      9 C9          -1.0100    -1.4420    -1.7460 c3         1 L41      -0.077400
     10 C10          1.4240    -0.0000     2.3920 ca         1 L41      -0.043000
     11 C11          3.4900    -0.0020    -1.1070 c3         1 L41       0.136400
     12 C12         -0.6960     0.0140     3.6880 c          1 L41       0.579700
     13 C13         -1.7750    -1.4420    -3.0720 c3         1 L41      -0.092100
     14 C14          4.0710    -0.0030    -2.5210 c3         1 L41      -0.085400
     15 C15          0.0710     0.0140     4.9850 c3         1 L41      -0.192100
     16 O16         -1.9090     0.0210     3.7010 o          1 L41      -0.529100
     17 C17          5.5990    -0.0040    -2.4460 c3         1 L41       0.147400
     18 O18          6.1410    -0.0050    -3.7680 os         1 L41      -0.338900
     19 C19          7.4970    -0.0050    -3.8790 ca         1 L41       0.063100
     20 C20          8.2860    -0.0110    -2.7390 ca         1 L41      -0.152000
     21 C21          8.0890    -0.0060    -5.1330 ca         1 L41      -0.152000
     22 C22          9.6620    -0.0110    -2.8510 ca         1 L41      -0.171000
     23 C23          9.4660    -0.0080    -5.2450 ca         1 L41      -0.171000
     24 C24         10.2560    -0.0070    -4.1050 ca         1 L41       0.141100
     25 O25         11.6110    -0.0060    -4.2160 os         1 L41      -0.286900
     26 C26         12.1540    -0.0010    -5.5380 c3         1 L41       0.018400
     27 C27         13.6590    -0.0010    -5.4630 c          1 L41       0.895600
     28 O28         14.3870     0.0030    -6.5910 o          1 L41      -0.826800
     29 O29         14.2110    -0.0050    -4.3880 o          1 L41      -0.826800
     30 H4          -0.1680     0.5100    -2.0610 hc         1 L41       0.052700
     31 H4A         -1.7000     0.5120    -1.1760 hc         1 L41       0.052700
     32 H5           3.1740    -0.0020     1.1920 ha         1 L41       0.142000
     33 HO8         -2.3570     0.9010     1.2720 ho         1 L41       0.431000
     34 H9          -1.5960    -1.9520    -0.9910 hc         1 L41       0.048700
     35 H9A         -0.0640    -1.9540    -1.8750 hc         1 L41       0.048700
     36 H10          1.9780    -0.0000     3.3220 ha         1 L41       0.135000
     37 H11          3.8250     0.8830    -0.5800 h1         1 L41       0.038700
     38 H11A         3.8260    -0.8860    -0.5780 h1         1 L41       0.038700
     39 H13         -1.2110    -0.8910    -3.8140 hc         1 L41       0.031700
     40 H13A        -1.9150    -2.4620    -3.4080 hc         1 L41       0.031700
     41 H13B        -2.7420    -0.9730    -2.9310 hc         1 L41       0.031700
     42 H14          3.7360     0.8810    -3.0500 hc         1 L41       0.068200
     43 H14A         3.7350    -0.8880    -3.0490 hc         1 L41       0.068200
     44 H15          0.6920    -0.8720     5.0370 hc         1 L41       0.058367
     45 H15A         0.6980     0.8970     5.0340 hc         1 L41       0.058367
     46 H15B        -0.6240     0.0180     5.8160 hc         1 L41       0.058367
     47 H17          5.9350     0.8810    -1.9190 h1         1 L41       0.032200
     48 H17A         5.9340    -0.8880    -1.9170 h1         1 L41       0.032200
     49 H20          7.8220    -0.0150    -1.7590 ha         1 L41       0.124500
     50 H21          7.4730    -0.0070    -6.0230 ha         1 L41       0.124500
     51 H22         10.2790    -0.0130    -1.9600 ha         1 L41       0.148000
     52 H23          9.9300    -0.0070    -6.2240 ha         1 L41       0.148000
     53 H26         11.8180     0.8860    -6.0620 h1         1 L41       0.025700
     54 H26A        11.8180    -0.8830    -6.0700 h1         1 L41       0.025700
@<TRIPOS>BOND
     1     3     1 ar
     2     2     1 ar
     3     1     4 1
     4     5     2 ar
     5     2     6 1
     6     7     3 ar
     7     3     8 1
     8     4     9 1
     9     4    30 1
    10     4    31 1
    11    10     5 ar
    12     5    32 1
    13    11     6 1
    14    12     7 1
    15    10     7 ar
    16     8    33 1
    17     9    13 1
    18     9    34 1
    19     9    35 1
    20    10    36 1
    21    11    14 1
    22    11    37 1
    23    11    38 1
    24    15    12 1
    25    12    16 2
    26    13    39 1
    27    13    40 1
    28    13    41 1
    29    14    17 1
    30    14    42 1
    31    14    43 1
    32    15    44 1
    33    15    45 1
    34    15    46 1
    35    18    17 1
    36    17    47 1
    37    17    48 1
    38    19    18 1
    39    20    19 ar
    40    19    21 ar
    41    22    20 ar
    42    20    49 1
    43    23    21 ar
    44    21    50 1
    45    22    24 ar
    46    22    51 1
    47    24    23 ar
    48    23    52 1
    49    25    24 1
    50    25    26 1
    51    26    27 1
    52    26    53 1
    53    26    54 1
    54    27    29 1
    55    27    28 1
@<TRIPOS>SUBSTRUCTURE
     1 L41         1 TEMP              0 ****  ****    0 ROOT
