@<TRIPOS>MOLECULE
molecule
   49    50     1     0     0
SMALL
bcc


@<TRIPOS>ATOM
      1 OBM          0.0000     0.0000     0.0000 oh         1 L42      -0.567800
      2 CBE          1.4300     0.0000     0.0000 c3         1 L42       0.334900
      3 CBF          1.9400     0.0000     1.4430 c3         1 L42       0.073700
      4 NBN          1.5020     1.2240     2.1170 ns         1 L42      -0.573900
      5 CBK          0.2810     1.2810     2.6870 c          1 L42       0.660100
      6 CBL         -0.1700     2.5410     3.3800 c3         1 L42      -0.170100
      7 OBS         -0.4550     0.3180     2.6400 o          1 L42      -0.600100
      8 OBQ          1.9060    -1.1680    -0.6730 os         1 L42      -0.436600
      9 CBI          3.3290    -1.2550    -0.7530 c3         1 L42       0.160100
     10 CBJ          3.7220    -2.5220    -1.5140 c3         1 L42       0.143400
     11 OBR          3.2770    -2.4220    -2.8680 oh         1 L42      -0.623800
     12 CBH          3.9160    -1.3040     0.6610 c3         1 L42       0.162100
     13 OBP          3.4500    -2.4780     1.3300 os         1 L42      -0.583500
     14 SBW          4.5400    -3.2520     2.0560 s6         1 L42       1.554300
     15 OBV          5.6760    -3.2410     1.2020 o          1 L42      -0.734867
     16 OBU          4.9220    -2.4450     3.2890 o          1 L42      -0.734867
     17 OBT          3.9360    -4.4470     2.5300 o          1 L42      -0.734867
     18 CBG          3.4700    -0.0610     1.4360 c3         1 L42       0.118100
     19 OBO          3.9520    -0.1350     2.7780 os         1 L42      -0.307600
     20 CBX          4.2010     1.1370     3.3790 c3         1 L42       0.335900
     21 OCH          5.2660     1.7970     2.6870 os         1 L42      -0.327900
     22 CCD          5.8080     2.8930     3.2700 ce         1 L42       0.095900
     23 CCE          6.6260     3.7970     2.4430 c          1 L42       0.892800
     24 OCG          6.8200     3.5250     1.1370 o          1 L42      -0.827300
     25 OCF          7.1250     4.7880     2.9380 o          1 L42      -0.827300
     26 CCC          5.6370     3.1890     4.5510 c2         1 L42      -0.367200
     27 CCA          4.8130     2.3300     5.4710 c3         1 L42       0.173300
     28 OCB          5.4850     2.1940     6.7250 oh         1 L42      -0.607800
     29 CBY          4.6200     0.9470     4.8420 c3         1 L42       0.136100
     30 OBZ          3.6020     0.2350     5.5460 oh         1 L42      -0.603800
     31 HBM         -0.3140     0.0890    -0.8840 ho         1 L42       0.388000
     32 HBE          1.7950     0.8830    -0.5100 h2         1 L42       0.007700
     33 HBF          1.5480    -0.8650     1.9640 h1         1 L42       0.136700
     34 HBN          2.0840     2.0380     2.1020 hn         1 L42       0.314500
     35 HBG          3.8640     0.8250     0.9530 h1         1 L42       0.063700
     36 HBL1        -1.1850     2.7730     3.0830 hc         1 L42       0.048367
     37 HBL2        -0.1320     2.3960     4.4530 hc         1 L42       0.048367
     38 HBL3         0.4840     3.3590     3.1030 hc         1 L42       0.048367
     39 HBI          3.7130    -0.3840    -1.2700 h1         1 L42       0.044700
     40 HBJ1         3.2600    -3.3830    -1.0450 h1         1 L42       0.054200
     41 HBJ2         4.7990    -2.6360    -1.4950 h1         1 L42       0.054200
     42 HBH          4.9980    -1.3220     0.6010 h1         1 L42       0.115700
     43 HBR          3.6010    -3.1580    -3.3600 ho         1 L42       0.387000
     44 HBX          3.3070     1.7480     3.3340 h2         1 L42       0.019700
     45 HBY          5.5520     0.3960     4.8830 h1         1 L42       0.094700
     46 HCC          6.1060     4.0810     4.9490 ha         1 L42       0.154000
     47 HCA          3.8460     2.7930     5.6240 h1         1 L42       0.017700
     48 HCB          5.1800     2.8600     7.3190 ho         1 L42       0.382000
     49 HBZ          4.0010    -0.3800     6.1390 ho         1 L42       0.412000
@<TRIPOS>BOND
     1     1     2 1
     2     2     3 1
     3     2     8 1
     4     3     4 1
     5     3    18 1
     6     4     5 1
     7     5     6 1
     8     5     7 2
     9     8     9 1
    10     9    10 1
    11     9    12 1
    12    10    11 1
    13    12    13 1
    14    12    18 1
    15    13    14 1
    16    14    15 1
    17    14    16 1
    18    14    17 1
    19    18    19 1
    20    19    20 1
    21    20    21 1
    22    20    29 1
    23    21    22 1
    24    22    23 1
    25    22    26 2
    26    23    24 1
    27    23    25 1
    28    26    27 1
    29    27    28 1
    30    27    29 1
    31    29    30 1
    32     1    31 1
    33     2    32 1
    34     3    33 1
    35     4    34 1
    36    18    35 1
    37     6    36 1
    38     6    37 1
    39     6    38 1
    40     9    39 1
    41    10    40 1
    42    10    41 1
    43    12    42 1
    44    11    43 1
    45    20    44 1
    46    29    45 1
    47    26    46 1
    48    27    47 1
    49    28    48 1
    50    30    49 1
@<TRIPOS>SUBSTRUCTURE
     1 L42         1 TEMP              0 ****  ****    0 ROOT
