@<TRIPOS>MOLECULE
molecule
   29    31     1     0     0
SMALL
bcc


@<TRIPOS>ATOM
      1 N1           0.0000     0.0000     0.0000 nc         1 L43      -0.015000
      2 C2           1.8030     0.0050     8.4720 ca         1 L43      -0.067000
      3 N2           1.2890     0.0000     0.0000 nd         1 L43      -0.235800
      4 N3           1.6970     0.0000     1.3450 na         1 L43      -0.193400
      5 C4           0.2210     0.0020     6.3040 cp         1 L43       0.026000
      6 C5          -0.9300     0.0020     5.5170 ca         1 L43      -0.137000
      7 C7           0.4350     0.0010     3.5400 ca         1 L43      -0.185500
      8 C6          -0.8250     0.0010     4.1440 ca         1 L43      -0.090500
      9 C8           0.5480     0.0000     2.0660 cd         1 L43       0.501000
     10 C1           1.7770     0.0060     9.8670 ca         1 L43      -0.100600
     11 C10          1.4790     0.0080     5.7030 ca         1 L43      -0.137000
     12 C11         -0.6090     0.0050     8.4440 ca         1 L43      -0.148000
     13 C12         -0.6290     0.0060     9.8240 ca         1 L43      -0.169000
     14 C13          0.5530     0.0060    10.5390 ca         1 L43      -0.076000
     15 C3           0.6070     0.0050     7.7600 cp         1 L43      -0.095000
     16 C9           1.5860     0.0120     4.3300 ca         1 L43      -0.090500
     17 N           -0.4470     0.0000     1.2030 nc         1 L43      -0.432000
     18 O            3.0140     0.0080    11.9770 o          1 L43      -0.831800
     19 O1           4.1060     0.0080    10.0440 o          1 L43      -0.831800
     20 H            2.7450    -0.0950     7.9480 ha         1 L43       0.147000
     21 H3           2.6340     0.0000     1.6960 hn         1 L43       0.338700
     22 H1          -1.9070     0.0000     5.9850 ha         1 L43       0.152000
     23 H2          -1.7190     0.0010     3.5320 ha         1 L43       0.131500
     24 H5           2.3720     0.0130     6.3150 ha         1 L43       0.152000
     25 H6          -1.5400     0.0050     7.8900 ha         1 L43       0.109000
     26 H7          -1.5760     0.0060    10.3490 ha         1 L43       0.108000
     27 H8           0.5300     0.0070    11.6220 ha         1 L43       0.158000
     28 H4           2.5630     0.0150     3.8620 ha         1 L43       0.131500
     29 C            3.0410     0.0070    10.6300 c          1 L43       0.882200
@<TRIPOS>BOND
     1     1    17 1
     2     1     3 2
     3    17     9 2
     4     3     4 1
     5     9     4 1
     6     9     7 1
     7    16     7 ar
     8    16    11 ar
     9     7     8 ar
    10    11     5 ar
    11    19    29 1
    12     8     6 ar
    13     5     6 ar
    14     5    15 1
    15     2    15 ar
    16     2    10 ar
    17    29    10 1
    18    29    18 1
    19    15    12 ar
    20    10    14 ar
    21    12    13 ar
    22    14    13 ar
    23     2    20 1
    24     4    21 1
    25     6    22 1
    26     8    23 1
    27    11    24 1
    28    12    25 1
    29    13    26 1
    30    14    27 1
    31    16    28 1
@<TRIPOS>SUBSTRUCTURE
     1 L43         1 TEMP              0 ****  ****    0 ROOT
