@<TRIPOS>MOLECULE
L44
  120   119     1     0     0
SMALL
bcc


@<TRIPOS>ATOM
      1 C1         -0.1470    0.4760   -0.0900 c3        1 L44      0.122400
      2 O1         -0.4890    1.2260    1.0540 oh        1 L44     -0.595800
      3 C2          1.3260    0.0620   -0.1130 c3        1 L44      0.102100
      4 O2          1.7890   -0.1580    1.2290 os        1 L44     -0.435900
      5 C3          2.2490    1.1260   -0.7060 c3        1 L44      0.136400
      6 O3          1.8760    2.3900   -0.1410 os        1 L44     -0.455900
      7 C4          2.7010    3.4530   -0.4040 c         1 L44      0.637100
      8 O4          3.6780    3.2600   -1.1270 o         1 L44     -0.536000
      9 C5          2.2500    4.7080    0.2750 c3        1 L44     -0.127400
     10 C6          2.3700    5.8990   -0.6540 c3        1 L44     -0.079400
     11 C7          2.0440    7.1830    0.0780 c3        1 L44     -0.079400
     12 C8          2.1400    8.3760   -0.8490 c3        1 L44     -0.079400
     13 C9          1.8180    9.6630   -0.1200 c3        1 L44     -0.079400
     14 C10         1.9120   10.8560   -1.0470 c3        1 L44     -0.079400
     15 C11         1.5900   12.1430   -0.3190 c3        1 L44     -0.079400
     16 C12         1.6810   13.3360   -1.2460 c3        1 L44     -0.079400
     17 C13         1.3590   14.6240   -0.5180 c3        1 L44     -0.079400
     18 C14         1.4500   15.8170   -1.4450 c3        1 L44     -0.079400
     19 C15         1.1280   17.1040   -0.7180 c3        1 L44     -0.079400
     20 C16         1.2170   18.2980   -1.6440 c3        1 L44     -0.080400
     21 C17         0.8980   19.5830   -0.9230 c3        1 L44     -0.092100
     22 C18         1.5240   -1.3770    1.7990 c         1 L44      0.642100
     23 O18         0.9690   -2.2370    1.1140 o         1 L44     -0.543000
     24 C19         1.9720   -1.4420    3.2260 c3        1 L44     -0.126400
     25 C20         2.4140   -2.8420    3.5950 c3        1 L44     -0.079400
     26 C21         2.7320   -2.9320    5.0720 c3        1 L44     -0.078400
     27 C22         3.1840   -4.3270    5.4480 c3        1 L44     -0.079400
     28 C23         3.4970   -4.4220    6.9260 c3        1 L44     -0.079400
     29 C24         3.9410   -5.8190    7.3030 c3        1 L44     -0.079400
     30 C25         4.2540   -5.9150    8.7810 c3        1 L44     -0.079400
     31 C26         4.6900   -7.3140    9.1600 c3        1 L44     -0.079400
     32 C27         5.0010   -7.4110   10.6380 c3        1 L44     -0.079400
     33 C28         5.4290   -8.8120   11.0190 c3        1 L44     -0.079400
     34 C29         5.7400   -8.9090   12.4970 c3        1 L44     -0.079400
     35 C30         6.1610  -10.3120   12.8790 c3        1 L44     -0.079400
     36 C31         6.4710  -10.4100   14.3570 c3        1 L44     -0.079400
     37 C32         6.8860  -11.8140   14.7400 c3        1 L44     -0.079400
     38 C33         7.1960  -11.9110   16.2190 c3        1 L44     -0.079400
     39 C34         7.6070  -13.3170   16.6020 c3        1 L44     -0.079400
     40 C35         7.9180  -13.4140   18.0810 c3        1 L44     -0.079400
     41 C36         8.3260  -14.8200   18.4650 c3        1 L44     -0.079400
     42 C37         8.6360  -14.9180   19.9430 c3        1 L44     -0.079400
     43 C38         9.0440  -16.3240   20.3290 c3        1 L44     -0.080400
     44 C39         9.3550  -16.4260   21.8000 c3        1 L44     -0.092100
     45 H1         -0.7990   -0.4370   -0.0370 h1        1 L44      0.056700
     46 H2         -0.3750    1.0630   -1.0190 h1        1 L44      0.056700
     47 H3          0.1800    1.9140    1.1630 ho        1 L44      0.416000
     48 H4          1.4450   -0.8830   -0.7160 h1        1 L44      0.087700
     49 H5          2.1100    1.1790   -1.8180 h1        1 L44      0.068200
     50 H6          3.3220    0.9100   -0.4630 h1        1 L44      0.068200
     51 H9          2.9030    4.8510    1.1790 hc        1 L44      0.079700
     52 H10         1.1920    4.5890    0.6290 hc        1 L44      0.079700
     53 H11         1.6730    5.7700   -1.5230 hc        1 L44      0.057700
     54 H12         3.4130    5.9460   -1.0680 hc        1 L44      0.057700
     55 H13         1.0080    7.1220    0.5060 hc        1 L44      0.041700
     56 H14         2.7510    7.3180    0.9390 hc        1 L44      0.041700
     57 H15         3.1750    8.4350   -1.2790 hc        1 L44      0.042700
     58 H16         1.4320    8.2430   -1.7090 hc        1 L44      0.042700
     59 H17         2.5280    9.7970    0.7380 hc        1 L44      0.039700
     60 H18         0.7850    9.6030    0.3120 hc        1 L44      0.039700
     61 H19         2.9450   10.9170   -1.4790 hc        1 L44      0.040700
     62 H20         1.2020   10.7220   -1.9060 hc        1 L44      0.040700
     63 H21         2.3000   12.2780    0.5390 hc        1 L44      0.039700
     64 H22         0.5570   12.0820    0.1150 hc        1 L44      0.039700
     65 H23         2.7140   13.3980   -1.6800 hc        1 L44      0.039700
     66 H24         0.9700   13.2020   -2.1040 hc        1 L44      0.039700
     67 H25         0.3260   14.5620   -0.0840 hc        1 L44      0.039700
     68 H26         2.0700   14.7590    0.3390 hc        1 L44      0.039700
     69 H27         2.4820   15.8780   -1.8790 hc        1 L44      0.039700
     70 H28         0.7390   15.6820   -2.3030 hc        1 L44      0.039700
     71 H29         1.8390   17.2400    0.1400 hc        1 L44      0.039700
     72 H30         0.0950   17.0430   -0.2830 hc        1 L44      0.039700
     73 H31         2.2500   18.3570   -2.0790 hc        1 L44      0.038700
     74 H32         0.5060   18.1600   -2.5010 hc        1 L44      0.038700
     75 H33         1.6110   19.7500   -0.0810 hc        1 L44      0.032700
     76 H34        -0.1370   19.5530   -0.5040 hc        1 L44      0.032700
     77 H35         0.9690   20.4490   -1.6240 hc        1 L44      0.032700
     78 H36         2.8030   -0.7070    3.3940 hc        1 L44      0.081200
     79 H37         1.1010   -1.1250    3.8610 hc        1 L44      0.081200
     80 H38         1.6040   -3.5720    3.3300 hc        1 L44      0.057700
     81 H39         3.3200   -3.1220    2.9950 hc        1 L44      0.057700
     82 H40         3.5350   -2.1920    5.3320 hc        1 L44      0.041700
     83 H41         1.8230   -2.6570    5.6710 hc        1 L44      0.041700
     84 H42         4.0940   -4.6010    4.8510 hc        1 L44      0.042700
     85 H43         2.3810   -5.0650    5.1840 hc        1 L44      0.042700
     86 H44         4.3030   -3.6870    7.1880 hc        1 L44      0.040200
     87 H45         2.5890   -4.1420    7.5220 hc        1 L44      0.040200
     88 H46         4.8500   -6.0990    6.7070 hc        1 L44      0.040200
     89 H47         3.1350   -6.5530    7.0400 hc        1 L44      0.040200
     90 H48         5.0650   -5.1850    9.0420 hc        1 L44      0.039700
     91 H49         3.3470   -5.6290    9.3760 hc        1 L44      0.039700
     92 H50         5.5970   -7.6000    8.5650 hc        1 L44      0.039700
     93 H51         3.8790   -8.0440    8.8980 hc        1 L44      0.039700
     94 H52         4.0960   -7.1200   11.2330 hc        1 L44      0.039700
     95 H53         5.8160   -6.6850   10.8990 hc        1 L44      0.039700
     96 H54         4.6140   -9.5380   10.7580 hc        1 L44      0.039700
     97 H55         6.3340   -9.1040   10.4240 hc        1 L44      0.039700
     98 H56         4.8360   -8.6130   13.0920 hc        1 L44      0.039700
     99 H57         6.5580   -8.1870   12.7570 hc        1 L44      0.039700
    100 H58         5.3420  -11.0340   12.6180 hc        1 L44      0.039700
    101 H59         7.0650  -10.6090   12.2840 hc        1 L44      0.039700
    102 H60         5.5680  -10.1090   14.9520 hc        1 L44      0.039700
    103 H61         7.2920   -9.6910   14.6170 hc        1 L44      0.039700
    104 H62         7.7890  -12.1150   14.1460 hc        1 L44      0.039700
    105 H63         6.0650  -12.5330   14.4800 hc        1 L44      0.039700
    106 H64         6.2940  -11.6080   16.8130 hc        1 L44      0.039700
    107 H65         8.0190  -11.1940   16.4780 hc        1 L44      0.039700
    108 H66         8.5090  -13.6200   16.0080 hc        1 L44      0.039700
    109 H67         6.7840  -14.0330   16.3430 hc        1 L44      0.039700
    110 H68         7.0160  -13.1090   18.6750 hc        1 L44      0.039700
    111 H69         8.7420  -12.6990   18.3400 hc        1 L44      0.039700
    112 H70         9.2270  -15.1260   17.8700 hc        1 L44      0.039700
    113 H71         7.5010  -15.5350   18.2060 hc        1 L44      0.039700
    114 H72         9.4620  -14.2030   20.2020 hc        1 L44      0.039700
    115 H73         7.7360  -14.6110   20.5380 hc        1 L44      0.039700
    116 H74         9.9440  -16.6290   19.7320 hc        1 L44      0.038700
    117 H75         8.2180  -17.0370   20.0680 hc        1 L44      0.038700
    118 H76        10.1920  -15.7400   22.0750 hc        1 L44      0.032700
    119 H77         9.6520  -17.4690   22.0630 hc        1 L44      0.032700
    120 H78         8.4620  -16.1490   22.4120 hc        1 L44      0.032700
@<TRIPOS>BOND
     1    1    2 1   
     2    1    3 1   
     3    1   45 1   
     4    1   46 1   
     5    2   47 1   
     6    3    4 1   
     7    3    5 1   
     8    3   48 1   
     9    4   22 1   
    10    5    6 1   
    11    5   49 1   
    12    5   50 1   
    13    6    7 1   
    14    7    8 2   
    15    7    9 1   
    16    9   10 1   
    17    9   51 1   
    18    9   52 1   
    19   10   11 1   
    20   10   53 1   
    21   10   54 1   
    22   11   12 1   
    23   11   55 1   
    24   11   56 1   
    25   12   13 1   
    26   12   57 1   
    27   12   58 1   
    28   13   14 1   
    29   13   59 1   
    30   13   60 1   
    31   14   15 1   
    32   14   61 1   
    33   14   62 1   
    34   15   16 1   
    35   15   63 1   
    36   15   64 1   
    37   16   17 1   
    38   16   65 1   
    39   16   66 1   
    40   17   18 1   
    41   17   67 1   
    42   17   68 1   
    43   18   19 1   
    44   18   69 1   
    45   18   70 1   
    46   19   20 1   
    47   19   71 1   
    48   19   72 1   
    49   20   21 1   
    50   20   73 1   
    51   20   74 1   
    52   21   75 1   
    53   21   76 1   
    54   21   77 1   
    55   22   23 2   
    56   22   24 1   
    57   24   25 1   
    58   24   78 1   
    59   24   79 1   
    60   25   26 1   
    61   25   80 1   
    62   25   81 1   
    63   26   27 1   
    64   26   82 1   
    65   26   83 1   
    66   27   28 1   
    67   27   84 1   
    68   27   85 1   
    69   28   29 1   
    70   28   86 1   
    71   28   87 1   
    72   29   30 1   
    73   29   88 1   
    74   29   89 1   
    75   30   31 1   
    76   30   90 1   
    77   30   91 1   
    78   31   32 1   
    79   31   92 1   
    80   31   93 1   
    81   32   33 1   
    82   32   94 1   
    83   32   95 1   
    84   33   34 1   
    85   33   96 1   
    86   33   97 1   
    87   34   35 1   
    88   34   98 1   
    89   34   99 1   
    90   35   36 1   
    91   35  100 1   
    92   35  101 1   
    93   36   37 1   
    94   36  102 1   
    95   36  103 1   
    96   37   38 1   
    97   37  104 1   
    98   37  105 1   
    99   38   39 1   
   100   38  106 1   
   101   38  107 1   
   102   39   40 1   
   103   39  108 1   
   104   39  109 1   
   105   40   41 1   
   106   40  110 1   
   107   40  111 1   
   108   41   42 1   
   109   41  112 1   
   110   41  113 1   
   111   42   43 1   
   112   42  114 1   
   113   42  115 1   
   114   43   44 1   
   115   43  116 1   
   116   43  117 1   
   117   44  118 1   
   118   44  119 1   
   119   44  120 1   
@<TRIPOS>SUBSTRUCTURE
     1 L44         1 TEMP              0 ****  ****    0 ROOT
