@<TRIPOS>MOLECULE
molecule
  120   119     1     0     0
SMALL
bcc


@<TRIPOS>ATOM
      1 C1           0.0000     0.0000     0.0000 c3         1 L44       0.123400
      2 O1          -0.4770     1.2210     0.5700 oh         1 L44      -0.582800
      3 C2           1.5290     0.0000     0.0000 c3         1 L44       0.151100
      4 O2           2.0130     0.0000     1.3690 os         1 L44      -0.405900
      5 C3           2.0400     1.2490    -0.7210 c3         1 L44       0.155400
      6 O3           1.4610     2.4320    -0.1080 os         1 L44      -0.388900
      7 C4           1.8080     3.6200    -0.6270 c          1 L44       0.628100
      8 O4           2.5730     3.6700    -1.5620 o          1 L44      -0.565000
      9 C5           1.2480     4.8910    -0.0430 c3         1 L44      -0.123400
     10 C6           1.8010     6.0930    -0.8130 c3         1 L44      -0.072400
     11 C7           1.2300     7.3830    -0.2210 c3         1 L44      -0.084400
     12 C8           1.7830     8.5850    -0.9890 c3         1 L44      -0.080400
     13 C9           1.2130     9.8760    -0.3970 c3         1 L44      -0.082400
     14 C10          1.7650    11.0770    -1.1650 c3         1 L44      -0.081400
     15 C11          1.1960    12.3670    -0.5740 c3         1 L44      -0.082400
     16 C12          1.7490    13.5690    -1.3420 c3         1 L44      -0.081400
     17 C13          1.1780    14.8600    -0.7490 c3         1 L44      -0.081400
     18 C14          1.7310    16.0610    -1.5180 c3         1 L44      -0.082400
     19 C15          1.1610    17.3520    -0.9260 c3         1 L44      -0.081400
     20 C16          1.7140    18.5530    -1.6950 c3         1 L44      -0.084400
     21 C17          1.1440    19.8440    -1.1020 c3         1 L44      -0.092100
     22 C18          2.2170    -1.1960     1.9430 c          1 L44       0.629100
     23 O18          1.9980    -2.2090     1.3230 o          1 L44      -0.560000
     24 C19          2.7180    -1.2760     3.3620 c3         1 L44      -0.125400
     25 C20          2.8630    -2.7430     3.7710 c3         1 L44      -0.073400
     26 C21          3.3710    -2.8230     5.2110 c3         1 L44      -0.084400
     27 C22          3.5160    -4.2910     5.6200 c3         1 L44      -0.080400
     28 C23          4.0250    -4.3710     7.0610 c3         1 L44      -0.082400
     29 C24          4.1700    -5.8390     7.4700 c3         1 L44      -0.081400
     30 C25          4.6780    -5.9190     8.9100 c3         1 L44      -0.081400
     31 C26          4.8230    -7.3860     9.3190 c3         1 L44      -0.082400
     32 C27          5.3320    -7.4670    10.7600 c3         1 L44      -0.082400
     33 C28          5.4760    -8.9340    11.1680 c3         1 L44      -0.081400
     34 C29          5.9850    -9.0140    12.6090 c3         1 L44      -0.081400
     35 C30          6.1300   -10.4820    13.0170 c3         1 L44      -0.082400
     36 C31          6.6390   -10.5630    14.4580 c3         1 L44      -0.082400
     37 C32          6.7840   -12.0290    14.8660 c3         1 L44      -0.082400
     38 C33          7.2930   -12.1100    16.3070 c3         1 L44      -0.081400
     39 C34          7.4380   -13.5770    16.7160 c3         1 L44      -0.082400
     40 C35          7.9460   -13.6580    18.1570 c3         1 L44      -0.082400
     41 C36          8.0910   -15.1250    18.5650 c3         1 L44      -0.082400
     42 C37          8.6000   -15.2050    20.0060 c3         1 L44      -0.081400
     43 C38          8.7450   -16.6730    20.4150 c3         1 L44      -0.084400
     44 C39          9.2530   -16.7530    21.8550 c3         1 L44      -0.092100
     45 H1          -0.3610    -0.0890    -1.0180 h1         1 L44       0.033700
     46 H2          -0.3610    -0.8370     0.5850 h1         1 L44       0.033700
     47 H3          -1.3950     1.1370     0.7690 ho         1 L44       0.395000
     48 H4           1.8900    -0.8850    -0.5110 h1         1 L44       0.088700
     49 H5           1.7540     1.2060    -1.7650 h1         1 L44       0.059700
     50 H6           3.1200     1.2940    -0.6440 h1         1 L44       0.059700
     51 H9           0.1680     4.8780    -0.1210 hc         1 L44       0.072700
     52 H10          1.5340     4.9660     0.9990 hc         1 L44       0.072700
     53 H11          2.8810     6.1060    -0.7340 hc         1 L44       0.057700
     54 H12          1.5150     6.0170    -1.8550 hc         1 L44       0.057700
     55 H13          0.1500     7.3700    -0.3000 hc         1 L44       0.040700
     56 H14          1.5150     7.4590     0.8220 hc         1 L44       0.040700
     57 H15          1.4980     8.5090    -2.0310 hc         1 L44       0.043700
     58 H16          2.8630     8.5980    -0.9100 hc         1 L44       0.043700
     59 H17          0.1320     9.8630    -0.4750 hc         1 L44       0.040700
     60 H18          1.4980     9.9510     0.6460 hc         1 L44       0.040700
     61 H19          1.4800    11.0010    -2.2070 hc         1 L44       0.041700
     62 H20          2.8460    11.0900    -1.0860 hc         1 L44       0.041700
     63 H21          0.1150    12.3540    -0.6520 hc         1 L44       0.040700
     64 H22          1.4810    12.4430     0.4690 hc         1 L44       0.040700
     65 H23          2.8290    13.5820    -1.2630 hc         1 L44       0.041700
     66 H24          1.4630    13.4930    -2.3840 hc         1 L44       0.041700
     67 H25          1.4640    14.9360     0.2930 hc         1 L44       0.040700
     68 H26          0.0980    14.8470    -0.8280 hc         1 L44       0.040700
     69 H27          1.4460    15.9850    -2.5600 hc         1 L44       0.040700
     70 H28          2.8110    16.0750    -1.4390 hc         1 L44       0.040700
     71 H29          0.0800    17.3390    -1.0050 hc         1 L44       0.040700
     72 H30          1.4450    17.4280     0.1170 hc         1 L44       0.040700
     73 H31          1.4290    18.4780    -2.7370 hc         1 L44       0.039700
     74 H32          2.7950    18.5660    -1.6160 hc         1 L44       0.039700
     75 H33          0.0640    19.8310    -1.1810 hc         1 L44       0.032367
     76 H34          1.4290    19.9200    -0.0600 hc         1 L44       0.032367
     77 H35          1.5360    20.6950    -1.6460 hc         1 L44       0.032367
     78 H36          3.6810    -0.7850     3.4330 hc         1 L44       0.073700
     79 H37          2.0130    -0.7850     4.0220 hc         1 L44       0.073700
     80 H38          1.9000    -3.2350     3.7000 hc         1 L44       0.058200
     81 H39          3.5680    -3.2340     3.1110 hc         1 L44       0.058200
     82 H40          4.3340    -2.3320     5.2820 hc         1 L44       0.041200
     83 H41          2.6660    -2.3320     5.8710 hc         1 L44       0.041200
     84 H42          4.2210    -4.7820     4.9600 hc         1 L44       0.043700
     85 H43          2.5530    -4.7820     5.5490 hc         1 L44       0.043700
     86 H44          3.3200    -3.8810     7.7210 hc         1 L44       0.041200
     87 H45          4.9880    -3.8800     7.1320 hc         1 L44       0.041200
     88 H46          3.2070    -6.3300     7.3990 hc         1 L44       0.041700
     89 H47          4.8750    -6.3300     6.8100 hc         1 L44       0.041700
     90 H48          3.9730    -5.4280     9.5700 hc         1 L44       0.040700
     91 H49          5.6410    -5.4270     8.9810 hc         1 L44       0.040700
     92 H50          3.8600    -7.8780     9.2480 hc         1 L44       0.041200
     93 H51          5.5280    -7.8770     8.6590 hc         1 L44       0.041200
     94 H52          4.6260    -6.9760    11.4190 hc         1 L44       0.040700
     95 H53          6.2950    -6.9760    10.8300 hc         1 L44       0.040700
     96 H54          6.1810    -9.4240    10.5080 hc         1 L44       0.040700
     97 H55          4.5130    -9.4250    11.0970 hc         1 L44       0.040700
     98 H56          5.2800    -8.5240    13.2690 hc         1 L44       0.040700
     99 H57          6.9480    -8.5230    12.6800 hc         1 L44       0.040700
    100 H58          6.8340   -10.9730    12.3570 hc         1 L44       0.040700
    101 H59          5.1670   -10.9730    12.9470 hc         1 L44       0.040700
    102 H60          7.6030   -10.0720    14.5280 hc         1 L44       0.040700
    103 H61          5.9350   -10.0720    15.1180 hc         1 L44       0.040700
    104 H62          7.4890   -12.5200    14.2060 hc         1 L44       0.040700
    105 H63          5.8210   -12.5210    14.7950 hc         1 L44       0.040700
    106 H64          6.5880   -11.6190    16.9670 hc         1 L44       0.040700
    107 H65          8.2560   -11.6190    16.3780 hc         1 L44       0.040700
    108 H66          8.1430   -14.0680    16.0560 hc         1 L44       0.040700
    109 H67          6.4750   -14.0690    16.6450 hc         1 L44       0.040700
    110 H68          7.2410   -13.1670    18.8170 hc         1 L44       0.040700
    111 H69          8.9090   -13.1670    18.2280 hc         1 L44       0.040700
    112 H70          7.1280   -15.6160    18.4940 hc         1 L44       0.040700
    113 H71          8.7960   -15.6160    17.9050 hc         1 L44       0.040700
    114 H72          7.8950   -14.7150    20.6660 hc         1 L44       0.040700
    115 H73          9.5630   -14.7140    20.0770 hc         1 L44       0.040700
    116 H74          9.4500   -17.1640    19.7550 hc         1 L44       0.039700
    117 H75          7.7820   -17.1640    20.3440 hc         1 L44       0.039700
    118 H76          9.3560   -17.7920    22.1440 hc         1 L44       0.032367
    119 H77          8.5480   -16.2620    22.5150 hc         1 L44       0.032367
    120 H78         10.2160   -16.2610    21.9260 hc         1 L44       0.032367
@<TRIPOS>BOND
     1    42    41 1
     2    42    43 1
     3    40    41 1
     4    40    39 1
     5    38    39 1
     6    38    37 1
     7    44    43 1
     8    36    37 1
     9    36    35 1
    10    34    35 1
    11    34    33 1
    12    32    33 1
    13    32    31 1
    14    30    31 1
    15    30    29 1
    16    28    29 1
    17    28    27 1
    18    26    27 1
    19    26    25 1
    20    25    24 1
    21    24    22 1
    22     2     1 1
    23    22     4 1
    24    22    23 2
    25     1     3 1
    26     4     3 1
    27     3     5 1
    28     5     6 1
    29     6     7 1
    30     8     7 2
    31     7     9 1
    32     9    10 1
    33    10    11 1
    34    11    12 1
    35    12    13 1
    36    13    14 1
    37    14    15 1
    38    21    20 1
    39    15    16 1
    40    20    19 1
    41    16    17 1
    42    19    18 1
    43    18    17 1
    44     1    45 1
    45     1    46 1
    46     2    47 1
    47     3    48 1
    48     5    49 1
    49     5    50 1
    50     9    51 1
    51     9    52 1
    52    10    53 1
    53    10    54 1
    54    11    55 1
    55    11    56 1
    56    12    57 1
    57    12    58 1
    58    13    59 1
    59    13    60 1
    60    14    61 1
    61    14    62 1
    62    15    63 1
    63    15    64 1
    64    16    65 1
    65    16    66 1
    66    17    67 1
    67    17    68 1
    68    18    69 1
    69    18    70 1
    70    19    71 1
    71    19    72 1
    72    20    73 1
    73    20    74 1
    74    21    75 1
    75    21    76 1
    76    21    77 1
    77    24    78 1
    78    24    79 1
    79    25    80 1
    80    25    81 1
    81    26    82 1
    82    26    83 1
    83    27    84 1
    84    27    85 1
    85    28    86 1
    86    28    87 1
    87    29    88 1
    88    29    89 1
    89    30    90 1
    90    30    91 1
    91    31    92 1
    92    31    93 1
    93    32    94 1
    94    32    95 1
    95    33    96 1
    96    33    97 1
    97    34    98 1
    98    34    99 1
    99    35   100 1
   100    35   101 1
   101    36   102 1
   102    36   103 1
   103    37   104 1
   104    37   105 1
   105    38   106 1
   106    38   107 1
   107    39   108 1
   108    39   109 1
   109    40   110 1
   110    40   111 1
   111    41   112 1
   112    41   113 1
   113    42   114 1
   114    42   115 1
   115    43   116 1
   116    43   117 1
   117    44   118 1
   118    44   119 1
   119    44   120 1
@<TRIPOS>SUBSTRUCTURE
     1 L44         1 TEMP              0 ****  ****    0 ROOT
