@<TRIPOS>MOLECULE
molecule
   31    31     1     0     0
SMALL
bcc


@<TRIPOS>ATOM
      1 C4           0.0000     0.0000     0.0000 cc         1 L46      -0.261600
      2 C3           1.4160     0.0000     0.0000 cc         1 L46      -0.022300
      3 C7           1.8140     0.0000     1.3030 cd         1 L46      -0.209900
      4 C5          -0.4050    -0.0000     1.3250 cd         1 L46      -0.055600
      5 C27         -0.8720     0.0050    -1.1790 c          1 L46       0.610700
      6 C8           3.2040     0.0010     1.7770 c          1 L46       0.705700
      7 C26         -1.8310    -0.0010     1.8130 c3         1 L46      -0.029800
      8 C29         -1.3490    -1.2960    -1.7700 c3         1 L46      -0.189100
      9 C1           2.6150     1.4420    -1.6220 c3         1 L46      -0.081100
     10 C2           2.3120     0.0010    -1.2120 c3         1 L46      -0.020100
     11 N6           0.6890     0.0000     2.1010 na         1 L46      -0.141100
     12 N10          3.4650     0.0010     3.0980 ns         1 L46      -0.593900
     13 O28         -1.2110     1.0590    -1.6780 o          1 L46      -0.520100
     14 O9           4.1190     0.0010     0.9760 o          1 L46      -0.596100
     15 C6           4.8510     0.0010     3.5710 c3         1 L46       0.105300
     16 H1          -1.8500     0.2260     2.8720 hc         1 L46       0.053700
     17 H2          -2.2700    -0.9760     1.6440 hc         1 L46       0.053700
     18 H3          -2.3970     0.7480     1.2730 hc         1 L46       0.053700
     19 H4          -2.4290    -1.3490    -1.7020 hc         1 L46       0.060367
     20 H5          -1.0500    -1.3520    -2.8090 hc         1 L46       0.060367
     21 H6          -0.9120    -2.1230    -1.2230 hc         1 L46       0.060367
     22 H7           2.0890     1.6750    -2.5400 hc         1 L46       0.037700
     23 H8           2.2900     2.1160    -0.8380 hc         1 L46       0.037700
     24 H9           3.6810     1.5570    -1.7770 hc         1 L46       0.037700
     25 H10          3.2380    -0.5100    -0.9760 hc         1 L46       0.059200
     26 H11          1.8160    -0.5100    -2.0280 hc         1 L46       0.059200
     27 H12          0.6900     0.0000     3.1020 hn         1 L46       0.292700
     28 H13          2.7120     0.0030     3.7570 hn         1 L46       0.301500
     29 H14          5.3550     0.8900     3.2120 h1         1 L46       0.043033
     30 H15          4.8630    -0.0070     4.6540 h1         1 L46       0.043033
     31 H16          5.3600    -0.8790     3.1970 h1         1 L46       0.043033
@<TRIPOS>BOND
     1     9    10 1
     2    10     2 1
     3    14     6 2
     4     8     5 1
     5     2     1 1
     6     2     3 2
     7     5    13 2
     8     5     1 1
     9     1     4 2
    10     6     3 1
    11     6    12 1
    12     3    11 1
    13     4    11 1
    14     4     7 1
    15    15    12 1
    16     7    16 1
    17     7    17 1
    18     7    18 1
    19     8    19 1
    20     8    20 1
    21     8    21 1
    22     9    22 1
    23     9    23 1
    24     9    24 1
    25    10    25 1
    26    10    26 1
    27    11    27 1
    28    12    28 1
    29    15    29 1
    30    15    30 1
    31    15    31 1
@<TRIPOS>SUBSTRUCTURE
     1 L46         1 TEMP              0 ****  ****    0 ROOT
