@<TRIPOS>MOLECULE
L46
   31    31     1     0     0
SMALL
bcc


@<TRIPOS>ATOM
      1 C4           0.0000     0.0000     0.0000 cc         1 L46      -0.265600
      2 C3           1.4160     0.0000     0.0000 cc         1 L46      -0.005300
      3 C7           1.8140     0.0000     1.3030 cd         1 L46      -0.424900
      4 C5          -0.4050    -0.0000     1.3250 cd         1 L46      -0.271600
      5 C27         -0.8720     0.0050    -1.1790 c          1 L46       0.669700
      6 C8           3.2040     0.0010     1.7770 c          1 L46       0.640700
      7 C26         -1.8310    -0.0010     1.8130 c3         1 L46       0.101200
      8 C29         -1.3490    -1.2960    -1.7700 c3         1 L46      -0.089100
      9 C1           2.6150     1.4420    -1.6220 c3         1 L46       0.011900
     10 C2           2.3120     0.0010    -1.2120 c3         1 L46       0.038900
     11 N6           0.6890     0.0000     2.1010 na         1 L46       0.438900
     12 N10          3.4650     0.0010     3.0980 ns         1 L46      -0.209900
     13 O28         -1.2110     1.0590    -1.6780 o          1 L46      -0.558100
     14 O9           4.1190     0.0010     0.9760 o          1 L46      -0.635100
     15 C6           4.8510     0.0010     3.5710 c3         1 L46       0.091300
     16 H1          -1.8500     0.2260     2.8720 hc         1 L46       0.010700
     17 H2          -2.2700    -0.9760     1.6440 hc         1 L46       0.010700
     18 H3          -2.3970     0.7480     1.2730 hc         1 L46       0.010700
     19 H4          -2.4290    -1.3490    -1.7020 hc         1 L46       0.023700
     20 H5          -1.0500    -1.3520    -2.8090 hc         1 L46       0.023700
     21 H6          -0.9120    -2.1230    -1.2230 hc         1 L46       0.023700
     22 H7           2.0890     1.6750    -2.5400 hc         1 L46       0.004033
     23 H8           2.2900     2.1160    -0.8380 hc         1 L46       0.004033
     24 H9           3.6810     1.5570    -1.7770 hc         1 L46       0.004033
     25 H10          3.2380    -0.5100    -0.9760 hc         1 L46       0.029700
     26 H11          1.8160    -0.5100    -2.0280 hc         1 L46       0.029700
     27 H12          0.6900     0.0000     3.1020 hn         1 L46       0.104700
     28 H13          2.7120     0.0030     3.7570 hn         1 L46       0.157500
     29 H14          5.3550     0.8900     3.2120 h1         1 L46       0.010033
     30 H15          4.8630    -0.0070     4.6540 h1         1 L46       0.010033
     31 H16          5.3600    -0.8790     3.1970 h1         1 L46       0.010033
@<TRIPOS>BOND
     1     1     2 1   
     2     1     4 2   
     3     1     5 1   
     4     2     3 2   
     5     2    10 1   
     6     3     6 1   
     7     3    11 1   
     8     4     7 1   
     9     4    11 1   
    10     5     8 1   
    11     5    13 2   
    12     6    12 1   
    13     6    14 2   
    14     7    16 1   
    15     7    17 1   
    16     7    18 1   
    17     8    19 1   
    18     8    20 1   
    19     8    21 1   
    20     9    10 1   
    21     9    22 1   
    22     9    23 1   
    23     9    24 1   
    24    10    25 1   
    25    10    26 1   
    26    11    27 1   
    27    12    15 1   
    28    12    28 1   
    29    15    29 1   
    30    15    30 1   
    31    15    31 1   
@<TRIPOS>SUBSTRUCTURE
     1 L46         1 TEMP              0 ****  ****    0 ROOT
