@<TRIPOS>MOLECULE
L47
   37    39     1     0     0
SMALL
bcc


@<TRIPOS>ATOM
      1 C1           0.0000     0.0000     0.0000 ca         1 L47      -0.105000
      2 C2           1.3780     0.0000     0.0000 ca         1 L47      -0.076000
      3 C3           2.0740     0.0000     1.2110 ca         1 L47      -0.111900
      4 C4           1.3650    -0.0060     2.4160 ca         1 L47      -0.015600
      5 C5          -0.0150     0.0000     2.4000 ca         1 L47      -0.105000
      6 C6          -0.6960     0.0010     1.1960 ca         1 L47      -0.077000
      7 C11          3.5480    -0.0000     1.2200 ce         1 L47       0.389900
      8 N12          4.2860    -0.0010     2.2760 n2         1 L47      -0.506300
      9 N13          5.6550    -0.0020     2.0140 n          1 L47       0.062200
     10 C14          5.8610     0.0030     0.5570 c3         1 L47       0.070000
     11 C15          4.4280    -0.0010    -0.0100 c3         1 L47      -0.099700
     12 C18          6.6000     1.2420     0.1210 ca         1 L47      -0.084300
     13 C20          6.6300    -0.0010     2.9440 c          1 L47       0.622100
     14 C21          6.2750    -0.0020     4.4090 c3         1 L47      -0.060100
     15 O25          7.7950    -0.0020     2.6020 o          1 L47      -0.628100
     16 C26          6.3890     2.4410     0.7780 ca         1 L47      -0.108000
     17 C27          7.0650     3.5790     0.3790 ca         1 L47      -0.075000
     18 C28          7.9550     3.5210    -0.6750 ca         1 L47      -0.130000
     19 C29          8.1700     2.3200    -1.3350 ca         1 L47       0.127100
     20 C30          7.4930     1.1790    -0.9310 ca         1 L47      -0.118000
     21 Cl35         2.2180    -0.0060     3.9290 cl         1 L47       0.018600
     22 O36          9.0450     2.2610    -2.3740 oh         1 L47      -0.503100
     23 H1          -0.5400     0.0000    -0.9390 ha         1 L47       0.108000
     24 H2           1.9210     0.0020    -0.9380 ha         1 L47       0.110000
     25 H5          -0.5670    -0.0020     3.3320 ha         1 L47       0.117000
     26 H6          -1.7790     0.0030     1.1890 ha         1 L47       0.106000
     27 H14          6.3900    -0.8900     0.2490 h1         1 L47       0.049700
     28 H151         4.2530     0.8900    -0.6020 hc         1 L47       0.045200
     29 H152         4.2570    -0.8950    -0.5980 hc         1 L47       0.045200
     30 H211         5.7220     0.8990     4.6470 hc         1 L47       0.027700
     31 H212         5.6670    -0.8700     4.6330 hc         1 L47       0.027700
     32 H213         7.1830    -0.0350     5.0000 hc         1 L47       0.027700
     33 H26          5.6910     2.4890     1.6050 ha         1 L47       0.110000
     34 H27          6.8970     4.5160     0.8950 ha         1 L47       0.104000
     35 H28          8.4840     4.4130    -0.9880 ha         1 L47       0.114000
     36 H30          7.6590     0.2400    -1.4450 ha         1 L47       0.115000
     37 H36          9.8940     2.0030    -2.0550 ho         1 L47       0.406000
@<TRIPOS>BOND
     1     1     2 ar  
     2     1     6 ar  
     3     1    23 1   
     4     2     3 ar  
     5     2    24 1   
     6     3     4 ar  
     7     3     7 1   
     8     4     5 ar  
     9     4    21 1   
    10     5     6 ar  
    11     5    25 1   
    12     6    26 1   
    13     7     8 2   
    14     7    11 1   
    15     8     9 1   
    16     9    10 1   
    17     9    13 1   
    18    10    11 1   
    19    10    12 1   
    20    10    27 1   
    21    11    28 1   
    22    11    29 1   
    23    12    16 ar  
    24    12    20 ar  
    25    13    14 1   
    26    13    15 2   
    27    14    30 1   
    28    14    31 1   
    29    14    32 1   
    30    16    17 ar  
    31    16    33 1   
    32    17    18 ar  
    33    17    34 1   
    34    18    19 ar  
    35    18    35 1   
    36    19    20 ar  
    37    19    22 1   
    38    20    36 1   
    39    22    37 1   
@<TRIPOS>SUBSTRUCTURE
     1 L47         1 TEMP              0 ****  ****    0 ROOT
