@<TRIPOS>MOLECULE
L4C
   31    30     1     0     0
SMALL
bcc


@<TRIPOS>ATOM
      1 O17          0.0000     0.0000     0.0000 o          1 L4C      -0.941800
      2 C9           1.3600     0.0000     0.0000 c          1 L4C       1.005600
      3 O16          2.0250     0.0000     1.0260 o          1 L4C      -0.941800
      4 C10          1.9090     0.0010    -1.4100 c3         1 L4C      -0.131400
      5 C11          3.4330     0.0930    -1.4580 c3         1 L4C      -0.053700
      6 C8           3.9290     0.1450    -2.8860 ce         1 L4C       0.354300
      7 C12          4.3240    -1.1590    -3.5120 c          1 L4C       0.929300
      8 O19          3.5370    -1.8520    -4.1220 o          1 L4C      -0.912300
      9 O18          5.6310    -1.3710    -3.3070 o          1 L4C      -0.912300
     10 N1           4.0220     1.1880    -3.6460 n2         1 L4C      -0.488200
     11 O13          3.6060     2.3400    -2.9690 os         1 L4C      -0.181300
     12 C5           3.7310     3.4430    -3.8530 c3         1 L4C       0.219400
     13 C3           3.2860     4.7110    -3.1390 c3         1 L4C      -0.124300
     14 N2           4.0560     4.9480    -1.9430 ns         1 L4C      -0.123900
     15 C6           5.2090     5.7130    -1.9240 c          1 L4C       0.562100
     16 C7           5.8430     5.8260    -0.5770 c3         1 L4C      -0.097100
     17 O15          5.7220     6.2780    -2.8820 o          1 L4C      -0.720100
     18 C4           1.8320     4.6040    -2.7250 c          1 L4C       0.971600
     19 O14          1.4310     4.0970    -1.6850 o          1 L4C      -0.881300
     20 OXT          0.9960     5.0980    -3.6750 o          1 L4C      -0.881300
     21 H101         1.4920     0.8450    -1.9460 hc         1 L4C       0.030700
     22 H102         1.6000    -0.9130    -1.9040 hc         1 L4C       0.030700
     23 H111         3.8580    -0.7730    -0.9650 hc         1 L4C       0.014700
     24 H112         3.7510     0.9890    -0.9380 hc         1 L4C       0.014700
     25 H5C1         4.7650     3.5450    -4.1600 h1         1 L4C      -0.009300
     26 H5C2         3.1090     3.2810    -4.7250 h1         1 L4C      -0.009300
     27 H3           3.4020     5.5540    -3.8090 h1         1 L4C       0.047700
     28 H2           3.7410     4.5400    -1.0850 hn         1 L4C       0.200500
     29 H7C1         6.7270     6.4490    -0.6450 hc         1 L4C       0.009367
     30 H7C2         5.1400     6.2720     0.1160 hc         1 L4C       0.009367
     31 H7C3         6.1220     4.8400    -0.2250 hc         1 L4C       0.009367
@<TRIPOS>BOND
     1     1     2 1   
     2     2     3 1   
     3     2     4 1   
     4     4     5 1   
     5     4    21 1   
     6     4    22 1   
     7     5     6 1   
     8     5    23 1   
     9     5    24 1   
    10     6     7 1   
    11     6    10 2   
    12     7     8 1   
    13     7     9 1   
    14    10    11 1   
    15    11    12 1   
    16    12    13 1   
    17    12    25 1   
    18    12    26 1   
    19    13    14 1   
    20    13    18 1   
    21    13    27 1   
    22    14    15 1   
    23    14    28 1   
    24    15    16 1   
    25    15    17 2   
    26    16    29 1   
    27    16    30 1   
    28    16    31 1   
    29    18    19 1   
    30    18    20 1   
@<TRIPOS>SUBSTRUCTURE
     1 L4C         1 TEMP              0 ****  ****    0 ROOT
