@<TRIPOS>MOLECULE
L4G
   68    72     1     0     0
SMALL
bcc


@<TRIPOS>ATOM
      1 C5           0.0000     0.0000     0.0000 cp         1 L4G       0.018000
      2 C6          -0.4160     0.9360    -2.2760 ca         1 L4G      -0.075000
      3 C7          -2.1180     0.0360    -3.7050 ca         1 L4G      -0.004000
      4 C8          -3.4960    -1.8330    -2.9580 ca         1 L4G      -0.056000
      5 C10          1.3940     0.0000     0.0000 ca         1 L4G      -0.119500
      6 C13         -2.8180     0.0440    -4.9220 ca         1 L4G      -0.143000
      7 C15         -1.3930    -4.0310     0.0760 ca         1 L4G      -0.127000
      8 C17          2.0830     0.0000     1.1970 ca         1 L4G       0.001500
      9 C20         -0.6070    -5.1440    -0.1560 ca         1 L4G      -0.144000
     10 C21          0.3770    -4.0540    -2.0570 ca         1 L4G      -0.144000
     11 C22          1.3910    -0.0010     2.3950 ca         1 L4G      -0.162500
     12 C24          0.2780    -5.1570    -1.2230 ca         1 L4G       0.105100
     13 C1          -1.7560    -0.9260    -1.4910 ca         1 L4G       0.137100
     14 C2          -0.7440     0.0010    -1.2820 cp         1 L4G      -0.075000
     15 C3          -2.4620    -0.9140    -2.7110 ca         1 L4G      -0.075000
     16 C9          -1.2930    -2.9270    -0.7580 ca         1 L4G       0.078100
     17 C11         -0.6910    -0.0000     1.2110 ca         1 L4G      -0.119500
     18 C12         -1.0820     0.9580    -3.4590 ca         1 L4G      -0.100000
     19 C14         -4.1580    -1.8050    -4.1450 ca         1 L4G      -0.131000
     20 C16         -0.4110    -2.9430    -1.8280 ca         1 L4G      -0.127000
     21 C18          0.0080    -0.0060     2.4000 ca         1 L4G       0.001500
     22 C19         -3.8250    -0.8710    -5.1320 ca         1 L4G       0.137100
     23 O23         -4.5040    -0.8660    -6.3090 oh         1 L4G      -0.501100
     24 S25          2.2760    -0.0020     3.9180 sy         1 L4G       0.872300
     25 C27          2.4830     1.7640     4.2770 c3         1 L4G       0.030700
     26 O28          3.5090    -0.6140     3.5660 o          1 L4G      -0.585300
     27 O29          1.3580    -0.6140     4.8140 o          1 L4G      -0.585300
     28 C30          1.8460    -5.9650    -2.6030 c3         1 L4G       0.162400
     29 C31          2.7420    -7.1650    -2.9160 c3         1 L4G       0.130800
     30 N32          1.9070    -8.3300    -3.2380 n3         1 L4G      -0.503600
     31 C33          2.8220    -9.4140    -3.6110 c3         1 L4G       0.132300
     32 C34          1.1360    -7.9790    -4.4350 c3         1 L4G       0.132300
     33 C35          2.0210   -10.6670    -3.9680 c3         1 L4G      -0.023400
     34 C36          0.2410    -9.1520    -4.8370 c3         1 L4G      -0.023400
     35 C37          1.1200   -10.3630    -5.1690 c3         1 L4G      -0.027400
     36 H6           0.3780     1.6510    -2.0970 ha         1 L4G       0.110000
     37 H8          -3.7650    -2.5620    -2.2030 ha         1 L4G       0.122000
     38 H10          1.9370     0.0010    -0.9380 ha         1 L4G       0.116500
     39 H13         -2.5670     0.7640    -5.6910 ha         1 L4G       0.120000
     40 H15         -2.0840    -4.0200     0.9100 ha         1 L4G       0.126000
     41 H17          3.1660     0.0020     1.1980 ha         1 L4G       0.123500
     42 H20         -0.6840    -6.0060     0.4950 ha         1 L4G       0.125000
     43 H21          1.0670    -4.0660    -2.8910 ha         1 L4G       0.125000
     44 H11         -1.7740    -0.0030     1.2170 ha         1 L4G       0.116500
     45 H12         -0.8170     1.6860    -4.2160 ha         1 L4G       0.110000
     46 H14         -4.9540    -2.5160    -4.3300 ha         1 L4G       0.116000
     47 H16         -0.3340    -2.0810    -2.4790 ha         1 L4G       0.126000
     48 H18         -0.5290    -0.0070     3.3410 ha         1 L4G       0.123500
     49 H23         -5.2250    -0.2600    -6.2530 ho         1 L4G       0.405000
     50 H271         3.0240     1.8820     5.2090 h1         1 L4G       0.058700
     51 H272         3.0400     2.2320     3.4750 h1         1 L4G       0.058700
     52 H273         1.5100     2.2320     4.3620 h1         1 L4G       0.058700
     53 H301         1.1990    -5.7670    -3.4480 h1         1 L4G       0.016200
     54 H302         2.4620    -5.0960    -2.4070 h1         1 L4G       0.016200
     55 H311         3.3760    -6.9310    -3.7630 h1         1 L4G       0.019700
     56 H312         3.3590    -7.3900    -2.0550 h1         1 L4G       0.019700
     57 H331         3.4100    -9.1080    -4.4680 h1         1 L4G       0.012200
     58 H332         3.4780    -9.6330    -2.7770 h1         1 L4G       0.012200
     59 H341         1.8160    -7.7510    -5.2470 h1         1 L4G       0.012200
     60 H342         0.5190    -7.1140    -4.2230 h1         1 L4G       0.012200
     61 H351         2.7020   -11.4700    -4.2220 hc         1 L4G       0.020450
     62 H352         1.4090   -10.9580    -3.1220 hc         1 L4G       0.020450
     63 H361        -0.3420    -8.8790    -5.7090 hc         1 L4G       0.020450
     64 H362        -0.4200    -9.4000    -4.0160 hc         1 L4G       0.020450
     65 H371         0.4900   -11.2210    -5.3760 hc         1 L4G       0.012200
     66 H372         1.7320   -10.1400    -6.0340 hc         1 L4G       0.012200
     67 O4          -2.0650    -1.8310    -0.5290 os         1 L4G      -0.199200
     68 O26          1.0500    -6.2530    -1.4510 os         1 L4G      -0.258900
@<TRIPOS>BOND
     1     1     5 ar  
     2     1    14 1   
     3     1    17 ar  
     4     2    14 ar  
     5     2    18 ar  
     6     2    36 1   
     7     3     6 ar  
     8     3    15 ar  
     9     3    18 ar  
    10     4    15 ar  
    11     4    19 ar  
    12     4    37 1   
    13     5     8 ar  
    14     5    38 1   
    15     6    22 ar  
    16     6    39 1   
    17     7     9 ar  
    18     7    16 ar  
    19     7    40 1   
    20     8    11 ar  
    21     8    41 1   
    22     9    12 ar  
    23     9    42 1   
    24    10    12 ar  
    25    10    20 ar  
    26    10    43 1   
    27    11    21 ar  
    28    11    24 1   
    29    12    68 1   
    30    13    14 ar  
    31    13    15 ar  
    32    13    67 1   
    33    16    20 ar  
    34    16    67 1   
    35    17    21 ar  
    36    17    44 1   
    37    18    45 1   
    38    19    22 ar  
    39    19    46 1   
    40    20    47 1   
    41    21    48 1   
    42    22    23 1   
    43    23    49 1   
    44    24    25 1   
    45    24    26 2   
    46    24    27 2   
    47    25    50 1   
    48    25    51 1   
    49    25    52 1   
    50    28    29 1   
    51    28    53 1   
    52    28    54 1   
    53    28    68 1   
    54    29    30 1   
    55    29    55 1   
    56    29    56 1   
    57    30    31 1   
    58    30    32 1   
    59    31    33 1   
    60    31    57 1   
    61    31    58 1   
    62    32    34 1   
    63    32    59 1   
    64    32    60 1   
    65    33    35 1   
    66    33    61 1   
    67    33    62 1   
    68    34    35 1   
    69    34    63 1   
    70    34    64 1   
    71    35    65 1   
    72    35    66 1   
@<TRIPOS>SUBSTRUCTURE
     1 L4G         1 TEMP              0 ****  ****    0 ROOT
