@<TRIPOS>MOLECULE
L4V
   47    48     1     0     0
SMALL
bcc


@<TRIPOS>ATOM
      1 C1          0.1230    0.6940    0.6800 c2        1 L4V      0.260000
      2 C2          1.4750    0.1540    0.4100 c2        1 L4V     -0.150000
      3 C3          1.9280    0.0440   -1.0160 c3        1 L4V      0.025000
      4 C4          3.2480   -0.5440   -1.2230 c1        1 L4V     -0.090000
      5 C5          4.1510   -0.6460   -0.1280 c2        1 L4V      0.042000
      6 C6          3.6850   -0.6080    1.1750 c2        1 L4V     -0.074000
      7 C7          2.3170   -0.1880    1.4290 c2        1 L4V     -0.023000
      8 C8          1.8660   -0.0700    2.8500 c3        1 L4V     -0.164000
      9 C9          0.7140   -0.9500    3.2250 c2        1 L4V      0.348000
     10 C10        -0.1400   -0.5560    4.3590 c3        1 L4V     -0.301000
     11 C11        -0.4110   -3.0750    2.8890 c3        1 L4V     -0.026000
     12 C12        -1.8050   -2.6180    2.5080 c3        1 L4V     -0.161000
     13 C13        -2.2600   -3.2360    1.2400 c2        1 L4V     -0.211000
     14 C14        -2.7610   -2.6010    0.1780 c2        1 L4V     -0.106000
     15 C15        -2.9550   -1.1420    0.0150 c3        1 L4V     -0.149000
     16 C16        -2.4260   -0.6690   -1.3260 c3        1 L4V     -0.197000
     17 O2         -0.5100    0.2990    1.6790 o         1 L4V     -0.368000
     18 O3          0.9280   -0.6290   -1.7730 oh        1 L4V     -0.311000
     19 O4          5.4650   -0.9350   -0.3600 oh        1 L4V     -0.207000
     20 CL1         4.6720   -1.0490    2.4730 cl        1 L4V      0.069000
     21 C17        -2.3730    0.8600   -1.4110 c3        1 L4V     -0.073000
     22 O5          0.6080   -2.0710    2.5640 os        1 L4V     -0.108000
     23 N          -1.0660    1.4740   -1.4380 n3        1 L4V     -0.294000
     24 H4          2.0180    1.1100   -1.4330 h1        1 L4V      0.170000
     25 H3          1.3790   -1.1100   -2.4860 ho        1 L4V      0.252000
     26 HA          5.5880   -0.9970   -1.3260 ho        1 L4V      0.263000
     27 H81C        2.7080   -0.3170    3.5670 hc        1 L4V      0.172500
     28 H82C        1.5590    0.9980    3.0570 hc        1 L4V      0.172500
     29 H101        0.4520    0.0200    5.1180 hc        1 L4V      0.162667
     30 H102       -0.6300   -1.4300    4.8570 hc        1 L4V      0.162667
     31 H111       -0.9560    0.1230    3.9710 hc        1 L4V      0.162667
     32 H112       -0.3170   -3.3200    3.9780 h1        1 L4V      0.140500
     33 H121       -0.0490   -3.9350    2.2560 h1        1 L4V      0.140500
     34 H122       -2.5120   -2.9280    3.3290 hc        1 L4V      0.120000
     35 H13        -1.8310   -1.4950    2.4540 hc        1 L4V      0.120000
     36 H14        -2.1890   -4.3390    1.2280 ha        1 L4V      0.133000
     37 H151       -3.0880   -3.1980   -0.6950 ha        1 L4V      0.139000
     38 H152       -4.0560   -0.9180    0.0830 hc        1 L4V      0.096500
     39 H161       -2.4540   -0.5620    0.8360 hc        1 L4V      0.096500
     40 H162       -1.4100   -1.1130   -1.5090 hc        1 L4V      0.099000
     41 H171       -3.0970   -1.0530   -2.1400 hc        1 L4V      0.099000
     42 H172       -2.8610    1.1740   -2.3810 h1        1 L4V      0.105500
     43 H181       -2.9770    1.3090   -0.5730 h1        1 L4V      0.105500
     44 H182        0.4170    2.5050   -0.4270 h1        1 L4V      0.121000
     45 H183       -1.1920    2.3670    0.4410 h1        1 L4V      0.121000
     46 C18        -0.4440    1.8090   -0.1970 c3        1 L4V     -0.078000
     47 HN1        -0.4440    0.9890   -2.0580 hn        1 L4V      0.191000
@<TRIPOS>BOND
     1    1    2 1   
     2    1   17 1   
     3    1   46 1   
     4    2    3 1   
     5    2    7 1   
     6    3    4 1   
     7    3   18 1   
     8    3   24 1   
     9    4    5 1   
    10    5    6 1   
    11    5   19 1   
    12    6    7 1   
    13    6   20 1   
    14    7    8 1   
    15    8    9 1   
    16    8   27 1   
    17    8   28 1   
    18    9   10 1   
    19    9   22 1   
    20   10   29 1   
    21   10   30 1   
    22   10   31 1   
    23   11   12 1   
    24   11   22 1   
    25   11   32 1   
    26   11   33 1   
    27   12   13 1   
    28   12   34 1   
    29   12   35 1   
    30   13   14 1   
    31   13   36 1   
    32   14   15 1   
    33   14   37 1   
    34   15   16 1   
    35   15   38 1   
    36   15   39 1   
    37   16   21 1   
    38   16   40 1   
    39   16   41 1   
    40   18   25 1   
    41   19   26 1   
    42   21   23 1   
    43   21   42 1   
    44   21   43 1   
    45   23   46 1   
    46   23   47 1   
    47   44   46 1   
    48   45   46 1   
@<TRIPOS>SUBSTRUCTURE
     1 L4V         1 TEMP              0 ****  ****    0 ROOT
