@<TRIPOS>MOLECULE
molecule
   44    44     1     0     0
SMALL
bcc


@<TRIPOS>ATOM
      1 O8           0.0000     0.0000     0.0000 o          1 L50      -0.912167
      2 P5           1.4800     0.0000     0.0000 p5         1 L50       1.044700
      3 O7           2.0170     0.0000     1.5180 o          1 L50      -0.912167
      4 O6           2.0170    -1.3150    -0.7580 o          1 L50      -0.912167
      5 C1           2.0880     1.4880    -0.8590 c3         1 L50      -0.245600
      6 C2           1.5100     1.5310    -2.2750 c3         1 L50      -0.021700
      7 C3           0.8120     2.8750    -2.4990 c3         1 L50      -0.130400
      8 C4          -0.3940     2.9700    -1.6020 c          1 L50       0.616100
      9 N9          -1.0860     4.1240    -1.5230 n          1 L50      -0.406300
     10 C11         -2.2590     4.2170    -0.6520 c3         1 L50       0.103300
     11 O10         -0.6780     5.2470    -2.2840 oh         1 L50      -0.411100
     12 O12         -0.7430     2.0080    -0.9520 o          1 L50      -0.404100
     13 C13          2.6400     1.3670    -3.2930 c3         1 L50      -0.068400
     14 C14          3.2570    -0.0260    -3.1500 c3         1 L50      -0.070400
     15 C15          4.3860    -0.1900    -4.1690 c3         1 L50      -0.047100
     16 C16          4.9940    -1.5630    -4.0280 ca         1 L50      -0.037300
     17 C18          6.0500    -1.7660    -3.1610 ca         1 L50      -0.112500
     18 C20          6.6040    -3.0260    -3.0270 ca         1 L50      -0.127000
     19 C21          6.1000    -4.0820    -3.7620 ca         1 L50      -0.111300
     20 C19          5.0420    -3.8800    -4.6290 ca         1 L50      -0.127000
     21 C17          4.4900    -2.6200    -4.7620 ca         1 L50      -0.112500
     22 C22          6.7040    -5.4550    -3.6180 c3         1 L50      -0.037800
     23 H3           1.7770     2.3710    -0.3150 hc         1 L50       0.019700
     24 H4           3.1700     1.4580    -0.9110 hc         1 L50       0.019700
     25 H5           0.7940     0.7280    -2.3970 hc         1 L50       0.094700
     26 H6           1.4980     3.6810    -2.2690 hc         1 L50       0.027700
     27 H7           0.5000     2.9500    -3.5340 hc         1 L50       0.027700
     28 H8          -1.9780     3.9580     0.3620 h1         1 L50       0.033033
     29 H9          -2.6450     5.2290    -0.6720 h1         1 L50       0.033033
     30 H10         -3.0230     3.5320    -1.0000 h1         1 L50       0.033033
     31 H11         -1.3800     5.5120    -2.8560 ho         1 L50       0.364000
     32 H12          3.3990     2.1180    -3.1150 hc         1 L50      -0.004800
     33 H13          2.2430     1.4850    -4.2950 hc         1 L50      -0.004800
     34 H14          2.4970    -0.7770    -3.3290 hc         1 L50       0.101700
     35 H15          3.6530    -0.1440    -2.1490 hc         1 L50       0.101700
     36 H16          3.9890    -0.0720    -5.1700 hc         1 L50       0.018700
     37 H17          5.1460     0.5610    -3.9900 hc         1 L50       0.018700
     38 H18          6.4450    -0.9370    -2.5850 ha         1 L50       0.128500
     39 H19          7.4320    -3.1850    -2.3470 ha         1 L50       0.109500
     40 H20          4.6480    -4.7090    -5.2050 ha         1 L50       0.109500
     41 H21          3.6610    -2.4600    -5.4420 ha         1 L50       0.128500
     42 H22          7.6610    -5.4830    -4.1230 hc         1 L50       0.027033
     43 H23          6.8430    -5.6810    -2.5680 hc         1 L50       0.027033
     44 H24          6.0410    -6.1890    -4.0600 hc         1 L50       0.027033
@<TRIPOS>BOND
     1    22    19 1
     2    18    19 ar
     3    18    17 ar
     4    19    20 ar
     5    17    16 ar
     6    20    21 ar
     7    16    21 ar
     8    16    15 1
     9    15    14 1
    10    10     9 1
    11    11     9 1
    12    13    14 1
    13    13     6 1
    14     9     8 1
    15     1     2 1
    16     8    12 2
    17     8     7 1
    18     6     7 1
    19     6     5 1
    20     5     2 1
    21     2     4 1
    22     2     3 1
    23     5    23 1
    24     5    24 1
    25     6    25 1
    26     7    26 1
    27     7    27 1
    28    10    28 1
    29    10    29 1
    30    10    30 1
    31    11    31 1
    32    13    32 1
    33    13    33 1
    34    14    34 1
    35    14    35 1
    36    15    36 1
    37    15    37 1
    38    17    38 1
    39    18    39 1
    40    20    40 1
    41    21    41 1
    42    22    42 1
    43    22    43 1
    44    22    44 1
@<TRIPOS>SUBSTRUCTURE
     1 L50         1 TEMP              0 ****  ****    0 ROOT
