@<TRIPOS>MOLECULE
L51
   69    73     1     0     0
SMALL
bcc


@<TRIPOS>ATOM
      1 CBJ          0.0000     0.0000     0.0000 ca         1 L51      -0.127300
      2 CAT          1.4010     0.0000     0.0000 ca         1 L51      -0.206000
      3 CBB          2.0800     0.0000     1.2000 ca         1 L51       0.053600
      4 NAE          3.4770     0.0000     1.2060 nv         1 L51      -0.446200
      5 CAN          1.3810     0.0000     2.4110 ca         1 L51      -0.151000
      6 CAQ          0.0210    -0.0000     2.4340 ca         1 L51      -0.098300
      7 CBI         -0.7020    -0.0000     1.2290 ca         1 L51       0.363600
      8 NAU         -2.0410     0.0000     1.2320 nb         1 L51      -0.607000
      9 CAH         -2.7340     0.0000     0.1180 ca         1 L51       0.437200
     10 CAM         -2.1190    -0.0000    -1.1270 ca         1 L51      -0.327300
     11 CBF         -0.7350     0.0060    -1.2090 ca         1 L51       0.057600
     12 NAY         -0.0910     0.0080    -2.4390 nu         1 L51      -0.202000
     13 CBD         -0.8300     0.1600    -3.6150 ca         1 L51       0.027600
     14 CAR         -1.8890     1.0570    -3.6590 ca         1 L51      -0.153000
     15 CAJ         -0.5020    -0.5810    -4.7450 ca         1 L51      -0.156000
     16 CAG         -1.2320    -0.4290    -5.9070 ca         1 L51      -0.053000
     17 CAI         -2.2900     0.4600    -5.9520 ca         1 L51      -0.165000
     18 CBC         -2.6200     1.2060    -4.8280 ca         1 L51      -0.050400
     19 NAW         -3.6880     2.1080    -4.8760 ns         1 L51      -0.047100
     20 CAZ         -3.6320     3.2570    -4.1730 c          1 L51       0.555100
     21 OAF         -2.6790     3.4840    -3.4550 o          1 L51      -0.665100
     22 NAX         -4.6340     4.1540    -4.2670 ns         1 L51      -0.023100
     23 CBH         -4.5760     5.3420    -3.5390 cc         1 L51      -0.235700
     24 CAS         -3.5740     5.7250    -2.7010 cd         1 L51      -0.330300
     25 CBG         -3.9090     6.9780    -2.1780 cd         1 L51       0.393600
     26 CBL         -3.0790     7.7750    -1.2050 c3         1 L51      -0.081300
     27 CAC         -1.8870     8.3930    -1.9380 c3         1 L51       0.006567
     28 CAD         -3.9360     8.8870    -0.5960 c3         1 L51       0.006567
     29 CAB         -2.5730     6.8550    -0.0930 c3         1 L51       0.006567
     30 NAV         -5.0620     7.3410    -2.6760 nc         1 L51      -0.652800
     31 NBK         -5.5080     6.3340    -3.5430 na         1 L51       0.580300
     32 CBE         -6.7000     6.3450    -4.2780 ca         1 L51      -0.136200
     33 CAO         -7.8420     6.9280    -3.7440 ca         1 L51      -0.110000
     34 CAK         -9.0160     6.9370    -4.4720 ca         1 L51      -0.082500
     35 CBA         -9.0550     6.3680    -5.7320 ca         1 L51      -0.090300
     36 CAA        -10.3370     6.3800    -6.5230 c3         1 L51       0.064200
     37 CAL         -7.9190     5.7870    -6.2650 ca         1 L51      -0.082500
     38 CAP         -6.7410     5.7780    -5.5450 ca         1 L51      -0.110000
     39 HAT          1.9420    -0.1270    -0.9290 ha         1 L51       0.108000
     40 HNAE         3.9820     0.0430     0.3430 hn         1 L51       0.265300
     41 HNAA         3.9740    -0.0210     2.0750 hn         1 L51       0.265300
     42 HAN          1.9310     0.0000     3.3450 ha         1 L51       0.106000
     43 HAQ         -0.5040    -0.0000     3.3820 ha         1 L51       0.114000
     44 HAH         -3.8160    -0.0040     0.1710 h4         1 L51      -0.028900
     45 HAM         -2.7170    -0.0000    -2.0300 ha         1 L51       0.141000
     46 HNAY         0.9050    -0.0830    -2.4830 hn         1 L51       0.290800
     47 HAR         -2.1450     1.6380    -2.7810 ha         1 L51       0.177000
     48 HAJ          0.3260    -1.2780    -4.7130 ha         1 L51       0.109000
     49 HAG         -0.9760    -1.0090    -6.7850 ha         1 L51       0.102000
     50 HAI         -2.8600     0.5760    -6.8660 ha         1 L51       0.105000
     51 HNAW        -4.4410     1.9540    -5.5170 hn         1 L51       0.160500
     52 HNAX        -5.4390     3.9490    -4.8250 hn         1 L51       0.170500
     53 HAS         -2.7070     5.1340    -2.4340 ha         1 L51       0.194000
     54 HAC         -2.2440     8.9860    -2.7710 hc         1 L51       0.008033
     55 HACA        -1.3320     9.0260    -1.2550 hc         1 L51       0.008033
     56 HACB        -1.2410     7.6050    -2.3050 hc         1 L51       0.008033
     57 HAD         -4.8060     8.4530    -0.1190 hc         1 L51       0.008033
     58 HADA        -3.3540     9.4290     0.1400 hc         1 L51       0.008033
     59 HADB        -4.2530     9.5670    -1.3770 hc         1 L51       0.008033
     60 HAB         -2.1600     7.4530     0.7110 hc         1 L51       0.008033
     61 HABA        -3.3950     6.2590     0.2860 hc         1 L51       0.008033
     62 HABB        -1.8050     6.2000    -0.4870 hc         1 L51       0.008033
     63 HAO         -7.8120     7.3740    -2.7570 ha         1 L51       0.120500
     64 HAK         -9.9070     7.3910    -4.0560 ha         1 L51       0.110000
     65 HAA        -11.0430     7.0550    -6.0560 hc         1 L51       0.009700
     66 HAAA       -10.7550     5.3810    -6.5480 hc         1 L51       0.009700
     67 HAAB       -10.1340     6.7120    -7.5340 hc         1 L51       0.009700
     68 HAL         -7.9520     5.3430    -7.2530 ha         1 L51       0.110000
     69 HAP         -5.8520     5.3230    -5.9640 ha         1 L51       0.120500
@<TRIPOS>BOND
     1     1     2 ar  
     2     1     7 ar  
     3     1    11 ar  
     4     2     3 ar  
     5     2    39 1   
     6     3     4 1   
     7     3     5 ar  
     8     4    40 1   
     9     4    41 1   
    10     5     6 ar  
    11     5    42 1   
    12     6     7 ar  
    13     6    43 1   
    14     7     8 ar  
    15     8     9 ar  
    16     9    10 ar  
    17     9    44 1   
    18    10    11 ar  
    19    10    45 1   
    20    11    12 1   
    21    12    13 1   
    22    12    46 1   
    23    13    14 ar  
    24    13    15 ar  
    25    14    18 ar  
    26    14    47 1   
    27    15    16 ar  
    28    15    48 1   
    29    16    17 ar  
    30    16    49 1   
    31    17    18 ar  
    32    17    50 1   
    33    18    19 1   
    34    19    20 1   
    35    19    51 1   
    36    20    21 2   
    37    20    22 1   
    38    22    23 1   
    39    22    52 1   
    40    23    24 2   
    41    23    31 1   
    42    24    25 1   
    43    24    53 1   
    44    25    26 1   
    45    25    30 2   
    46    26    27 1   
    47    26    28 1   
    48    26    29 1   
    49    27    54 1   
    50    27    55 1   
    51    27    56 1   
    52    28    57 1   
    53    28    58 1   
    54    28    59 1   
    55    29    60 1   
    56    29    61 1   
    57    29    62 1   
    58    30    31 1   
    59    31    32 1   
    60    32    33 ar  
    61    32    38 ar  
    62    33    34 ar  
    63    33    63 1   
    64    34    35 ar  
    65    34    64 1   
    66    35    36 1   
    67    35    37 ar  
    68    36    65 1   
    69    36    66 1   
    70    36    67 1   
    71    37    38 ar  
    72    37    68 1   
    73    38    69 1   
@<TRIPOS>SUBSTRUCTURE
     1 L51         1 TEMP              0 ****  ****    0 ROOT
