@<TRIPOS>MOLECULE
molecule
   44    45     1     0     0
SMALL
bcc


@<TRIPOS>ATOM
      1 O2           0.0000     0.0000     0.0000 o          1 L52      -0.517100
      2 C19          1.2130     0.0000     0.0000 c          1 L52       0.691100
      3 N2           1.8870     0.0050    -1.1670 ns         1 L52      -0.480400
      4 O3           1.1800     0.0110    -2.3930 oh         1 L52      -0.353100
      5 C18          1.9660     0.0000     1.3060 c3         1 L52       0.042700
      6 C20          2.8460    -1.2490     1.3870 c3         1 L52       0.103800
      7 N3           3.4880    -1.3110     2.7070 nz         1 L52      -0.839600
      8 N1           1.0140     0.0000     2.4190 ns         1 L52      -0.589900
      9 C1           1.3800     0.4940     3.6180 c          1 L52       0.646700
     10 O1           2.5000     0.9390     3.7770 o          1 L52      -0.659100
     11 C2           0.4210     0.4950     4.7400 ca         1 L52      -0.182600
     12 C7           0.8000     1.0070     5.9840 ca         1 L52      -0.087000
     13 C6          -0.0860     1.0080     7.0230 ca         1 L52      -0.121500
     14 C5          -1.3770     0.4950     6.8400 ca         1 L52       0.125000
     15 C4          -1.7570    -0.0160     5.5930 ca         1 L52      -0.121500
     16 C3          -0.8700    -0.0120     4.5560 ca         1 L52      -0.087000
     17 C8          -2.3080     0.4960     7.9290 cg         1 L52      -0.173000
     18 C9          -3.0750     0.4760     8.8170 ch         1 L52       0.025000
     19 C10         -4.1680     1.2170    10.0680 ch         1 L52      -0.006000
     20 C11         -4.7370     1.2770    10.9440 cg         1 L52      -0.050000
     21 C12         -5.4380     2.0050    12.2190 ca         1 L52       0.002000
     22 C17         -4.8780     2.3280    13.5080 ca         1 L52      -0.091500
     23 C16         -5.6970     2.4260    14.4660 ca         1 L52      -0.130000
     24 C15         -6.9800     2.8260    14.3660 ca         1 L52      -0.117000
     25 C14         -7.6070     2.4830    12.9830 ca         1 L52      -0.130000
     26 C13         -6.8010     1.8360    12.1520 ca         1 L52      -0.091500
     27 H12          2.8350     0.0670    -1.4830 hn         1 L52       0.340500
     28 H13          1.8620    -0.1870    -3.0140 ho         1 L52       0.406000
     29 H1           2.5890     0.8850     1.3630 h1         1 L52       0.108700
     30 H15          2.2190    -2.1180     1.2260 hx         1 L52       0.113200
     31 H14          3.5590    -1.3180     0.5740 hx         1 L52       0.113200
     32 H16          4.1440    -2.0010     3.0150 hn         1 L52       0.468467
     33 H17          3.8270    -0.3930     2.9170 hn         1 L52       0.468467
     34 H2           0.0150     0.0410     2.4690 hn         1 L52       0.375500
     35 H6           1.5690     1.7130     6.2730 ha         1 L52       0.151000
     36 H5           0.2170     1.4870     7.9460 ha         1 L52       0.162500
     37 H4          -2.7260    -0.3070     5.2080 ha         1 L52       0.162500
     38 H3          -1.2170    -0.2950     3.5690 ha         1 L52       0.151000
     39 H11         -3.8300     2.0560    13.4670 ha         1 L52       0.140000
     40 H10         -5.2130     2.7700    15.3730 ha         1 L52       0.135000
     41 H9          -7.5100     3.0700    15.2790 ha         1 L52       0.153000
     42 H8          -8.6840     2.4440    13.0890 ha         1 L52       0.135000
     43 H7          -7.3940     1.7820    11.2470 ha         1 L52       0.140000
     44 H33          2.7150    -1.1440     3.3210 hn         1 L52       0.468467
@<TRIPOS>BOND
     1     4     3 1
     2     1     2 2
     3     3     2 1
     4     2     5 1
     5     6     5 1
     6     6     7 1
     7     5     8 1
     8     8     9 1
     9     9    10 2
    10     9    11 1
    11    16    11 ar
    12    16    15 ar
    13    11    12 ar
    14    15    14 ar
    15    12    13 ar
    16    14    13 ar
    17    14    17 1
    18    17    18 3
    19    18    19 1
    20    19    20 3
    21    20    21 1
    22    22    21 ar
    23    22    23 ar
    24    21    26 ar
    25    23    24 ar
    26    26    25 ar
    27    24    25 ar
    28     3    27 1
    29     4    28 1
    30     5    29 1
    31     6    30 1
    32     6    31 1
    33     7    32 1
    34     7    33 1
    35     8    34 1
    36    12    35 1
    37    13    36 1
    38    15    37 1
    39    16    38 1
    40    22    39 1
    41    23    40 1
    42    24    41 1
    43    25    42 1
    44    26    43 1
    45    44     7 1
@<TRIPOS>SUBSTRUCTURE
     1 L52         1 TEMP              0 ****  ****    0 ROOT
