@<TRIPOS>MOLECULE
L52
   44    45     1     0     0
SMALL
bcc


@<TRIPOS>ATOM
      1 O2           0.0000     0.0000     0.0000 o          1 L52      -0.567100
      2 C19          1.2130     0.0000     0.0000 c          1 L52       0.581100
      3 N2           1.8870     0.0050    -1.1670 ns         1 L52      -0.052400
      4 O3           1.1800     0.0110    -2.3930 oh         1 L52      -0.430100
      5 C18          1.9660     0.0000     1.3060 c3         1 L52      -0.035300
      6 C20          2.8460    -1.2490     1.3870 c3         1 L52      -0.030200
      7 N3           3.4880    -1.3110     2.7070 nz         1 L52      -0.027600
      8 N1           1.0140     0.0000     2.4190 ns         1 L52      -0.235900
      9 C1           1.3800     0.4940     3.6180 c          1 L52       0.598700
     10 O1           2.5000     0.9390     3.7770 o          1 L52      -0.696100
     11 C2           0.4210     0.4950     4.7400 ca         1 L52      -0.198600
     12 C7           0.8000     1.0070     5.9840 ca         1 L52      -0.055500
     13 C6          -0.0860     1.0080     7.0230 ca         1 L52      -0.106000
     14 C5          -1.3770     0.4950     6.8400 ca         1 L52       0.160000
     15 C4          -1.7570    -0.0160     5.5930 ca         1 L52      -0.106000
     16 C3          -0.8700    -0.0120     4.5560 ca         1 L52      -0.055500
     17 C8          -2.3080     0.4960     7.9290 cg         1 L52      -0.192000
     18 C9          -3.0750     0.4760     8.8170 ch         1 L52       0.066000
     19 C10         -4.1680     1.2170    10.0680 ch         1 L52      -0.004000
     20 C11         -4.7370     1.2770    10.9440 cg         1 L52      -0.070000
     21 C12         -5.4380     2.0050    12.2190 ca         1 L52       0.034000
     22 C17         -4.8780     2.3280    13.5080 ca         1 L52      -0.078000
     23 C16         -5.6970     2.4260    14.4660 ca         1 L52      -0.107000
     24 C15         -6.9800     2.8260    14.3660 ca         1 L52      -0.084000
     25 C14         -7.6070     2.4830    12.9830 ca         1 L52      -0.107000
     26 C13         -6.8010     1.8360    12.1520 ca         1 L52      -0.078000
     27 H12          2.8350     0.0670    -1.4830 hn         1 L52       0.172500
     28 H13          1.8620    -0.1870    -3.0140 ho         1 L52       0.401000
     29 H1           2.5890     0.8850     1.3630 h1         1 L52       0.076700
     30 H15          2.2190    -2.1180     1.2260 hx         1 L52       0.079200
     31 H14          3.5590    -1.3180     0.5740 hx         1 L52       0.079200
     32 H16          4.1440    -2.0010     3.0150 hn         1 L52       0.255467
     33 H17          3.8270    -0.3930     2.9170 hn         1 L52       0.255467
     34 H2           0.0150     0.0410     2.4690 hn         1 L52       0.251500
     35 H6           1.5690     1.7130     6.2730 ha         1 L52       0.122000
     36 H5           0.2170     1.4870     7.9460 ha         1 L52       0.129000
     37 H4          -2.7260    -0.3070     5.2080 ha         1 L52       0.129000
     38 H3          -1.2170    -0.2950     3.5690 ha         1 L52       0.122000
     39 H11         -3.8300     2.0560    13.4670 ha         1 L52       0.111500
     40 H10         -5.2130     2.7700    15.3730 ha         1 L52       0.104000
     41 H9          -7.5100     3.0700    15.2790 ha         1 L52       0.119000
     42 H8          -8.6840     2.4440    13.0890 ha         1 L52       0.104000
     43 H7          -7.3940     1.7820    11.2470 ha         1 L52       0.111500
     44 H33          2.7150    -1.1440     3.3210 hn         1 L52       0.255467
@<TRIPOS>BOND
     1     1     2 2   
     2     2     3 1   
     3     2     5 1   
     4     3     4 1   
     5     3    27 1   
     6     4    28 1   
     7     5     6 1   
     8     5     8 1   
     9     5    29 1   
    10     6     7 1   
    11     6    30 1   
    12     6    31 1   
    13     7    32 1   
    14     7    33 1   
    15     7    44 1   
    16     8     9 1   
    17     8    34 1   
    18     9    10 2   
    19     9    11 1   
    20    11    12 ar  
    21    11    16 ar  
    22    12    13 ar  
    23    12    35 1   
    24    13    14 ar  
    25    13    36 1   
    26    14    15 ar  
    27    14    17 1   
    28    15    16 ar  
    29    15    37 1   
    30    16    38 1   
    31    17    18 3   
    32    18    19 1   
    33    19    20 3   
    34    20    21 1   
    35    21    22 ar  
    36    21    26 ar  
    37    22    23 ar  
    38    22    39 1   
    39    23    24 ar  
    40    23    40 1   
    41    24    25 ar  
    42    24    41 1   
    43    25    26 ar  
    44    25    42 1   
    45    26    43 1   
@<TRIPOS>SUBSTRUCTURE
     1 L52         1 TEMP              0 ****  ****    0 ROOT
