@<TRIPOS>MOLECULE
molecule
   45    46     1     0     0
SMALL
bcc


@<TRIPOS>ATOM
      1 O01          0.0000     0.0000     0.0000 o          1 L53      -0.466100
      2 C02          1.2080     0.0000     0.0000 c          1 L53       0.580500
      3 N03          1.8820     0.0050    -1.1670 ne         1 L53      -0.062100
      4 O04          1.2730     0.0100    -2.2220 o          1 L53      -0.072300
      5 C05          1.9620     0.0000     1.3050 c3         1 L53       0.067700
      6 N06          1.0100     0.0010     2.4190 ns         1 L53      -0.562900
      7 C07          1.3760     0.4940     3.6180 c          1 L53       0.628700
      8 O08          2.4970     0.9390     3.7760 o          1 L53      -0.604100
      9 C09          0.4170     0.4950     4.7400 ca         1 L53      -0.168600
     10 C10         -0.8700    -0.0220     4.5590 ca         1 L53      -0.064500
     11 C11         -1.7570    -0.0230     5.5960 ca         1 L53      -0.123500
     12 C12         -1.3790     0.4950     6.8420 ca         1 L53       0.042000
     13 C13         -2.3080     0.4950     7.9300 cg         1 L53      -0.144000
     14 C14         -3.0810     0.5120     8.8150 ch         1 L53      -0.041000
     15 C15         -3.8560     0.5340    10.3650 ch         1 L53       0.017000
     16 C16         -4.3930     0.5510    11.1160 cg         1 L53      -0.120000
     17 C17         -5.1540     0.5710    12.8450 ca         1 L53       0.059000
     18 C18         -4.5760     0.5390    13.9330 ca         1 L53      -0.090000
     19 C19         -5.3880     0.5650    15.0500 ca         1 L53      -0.186000
     20 C20         -6.8360     0.6270    14.9140 ca         1 L53       0.156600
     21 N21         -7.4440     1.1690    15.9770 nv         1 L53      -0.934200
     22 C22         -7.4130     0.6600    13.5950 ca         1 L53      -0.186000
     23 C23         -6.7180     0.6390    12.4480 ca         1 L53      -0.090000
     24 C24         -0.0900     1.0120     7.0210 ca         1 L53      -0.123500
     25 C25          0.7980     1.0070     5.9840 ca         1 L53      -0.064500
     26 C26          2.8410    -1.2490     1.3870 c3         1 L53       0.060100
     27 O27          3.7700    -1.2490     0.3000 oh         1 L53      -0.570800
     28 C28          3.6060    -1.2490     2.7110 c3         1 L53      -0.165100
     29 H05          2.5850     0.8840     1.3620 h1         1 L53       0.122700
     30 HN06         0.3380    -0.6030     2.8490 hn         1 L53       0.335500
     31 H10         -0.8200    -0.4920     3.5840 ha         1 L53       0.147500
     32 H11         -2.6710    -0.5920     5.7150 ha         1 L53       0.153000
     33 H18         -3.6020     0.0970    13.7560 ha         1 L53       0.169500
     34 H19         -4.8890     0.6080    16.0100 ha         1 L53       0.136000
     35 HN21        -7.4350     0.5310    16.7480 hn         1 L53       0.431300
     36 HN2A        -7.9770     2.0130    16.0440 hn         1 L53       0.431300
     37 H22         -8.4750     0.6810    13.8060 ha         1 L53       0.136000
     38 H23         -7.3870     0.9580    11.6590 ha         1 L53       0.169500
     39 H24         -0.1030     1.4470     8.0140 ha         1 L53       0.153000
     40 H25          1.8070     1.1230     6.3610 ha         1 L53       0.147500
     41 H26          2.2180    -2.1340     1.3290 h1         1 L53       0.056700
     42 HO27         4.5190    -1.1430     0.8620 ho         1 L53       0.407000
     43 H28          3.3360    -0.2390     2.9950 hc         1 L53       0.077700
     44 H28A         4.5380    -1.3550     2.1690 hc         1 L53       0.077700
     45 H28B         3.4190    -2.1420     3.2950 hc         1 L53       0.077700
@<TRIPOS>BOND
     1     2     1 2
     2     3     2 1
     3     5     2 1
     4     3     4 2
     5    26     5 1
     6     5     6 1
     7     5    29 1
     8     6     7 1
     9     6    30 1
    10     8     7 2
    11     7     9 1
    12     9    25 ar
    13     9    10 ar
    14    10    11 ar
    15    10    31 1
    16    11    12 ar
    17    11    32 1
    18    24    12 ar
    19    12    13 1
    20    13    14 3
    21    14    15 1
    22    15    16 3
    23    16    17 1
    24    17    18 ar
    25    17    23 ar
    26    18    19 ar
    27    18    33 1
    28    19    20 ar
    29    19    34 1
    30    22    20 ar
    31    20    21 1
    32    21    35 1
    33    21    36 1
    34    23    22 ar
    35    22    37 1
    36    23    38 1
    37    25    24 ar
    38    24    39 1
    39    25    40 1
    40    27    26 1
    41    26    28 1
    42    26    41 1
    43    27    42 1
    44    28    43 1
    45    28    44 1
    46    28    45 1
@<TRIPOS>SUBSTRUCTURE
     1 L53         1 TEMP              0 ****  ****    0 ROOT
