@<TRIPOS>MOLECULE
L53
   46    47     1     0     0
SMALL
bcc


@<TRIPOS>ATOM
      1 O01        -0.3550    0.4330    0.4590 o         1 L53     -0.492100
      2 C02         0.8700    0.4290    0.3080 c         1 L53      0.540500
      3 N03         1.5510    1.1190   -0.8310 ne        1 L53      0.042900
      4 O04         1.6030    0.6260   -1.8590 o         1 L53      0.006700
      5 C05         1.7940   -0.1160    1.4150 c3        1 L53     -0.018500
      6 N06         1.0310   -0.3590    2.6780 n4        1 L53     -0.672800
      7 C07         1.6410    0.2620    3.9340 c         1 L53      0.583700
      8 O08         2.8200    0.5810    3.8460 o         1 L53     -0.451100
      9 C09         0.7470    0.4000    5.0720 ca        1 L53     -0.236600
     10 C10        -0.5250   -0.1970    5.1590 ca        1 L53     -0.053000
     11 C11        -1.3060   -0.0110    6.2860 ca        1 L53     -0.131000
     12 C12        -0.8410    0.7790    7.3630 ca        1 L53      0.170000
     13 C13        -1.6370    0.9670    8.4930 cg        1 L53     -0.216000
     14 C14        -2.3220    1.1320    9.4710 ch        1 L53      0.128000
     15 C15        -3.0870    1.3180   10.5610 ch        1 L53     -0.159000
     16 C16        -3.7730    1.4870   11.5380 cg        1 L53      0.064000
     17 C17        -4.5680    1.6850   12.6710 ca        1 L53     -0.103000
     18 C18        -4.1040    2.4740   13.7400 ca        1 L53     -0.030000
     19 C19        -4.8860    2.6770   14.8630 ca        1 L53     -0.222000
     20 C20        -6.1810    2.0970   14.9570 ca        1 L53      0.224600
     21 N21        -6.9900    2.3500   16.0410 nh        1 L53     -0.852200
     22 C22        -6.6380    1.2950   13.8760 ca        1 L53     -0.222000
     23 C23        -5.8450    1.1010   12.7590 ca        1 L53     -0.030000
     24 C24         0.4350    1.3690    7.2760 ca        1 L53     -0.131000
     25 C25         1.2200    1.1800    6.1480 ca        1 L53     -0.053000
     26 C26         2.5090   -1.3990    0.8780 c3        1 L53      0.146100
     27 O27         3.3530   -0.9900   -0.1740 oh        1 L53     -0.573800
     28 C28         3.2580   -2.1350    1.9680 c3        1 L53     -0.165100
     29 H05         2.5920    0.6640    1.6300 hx        1 L53      0.151700
     30 HN06        0.0740    0.0180    2.5670 hn        1 L53      0.467800
     31 H10        -0.9270   -0.8320    4.3550 ha        1 L53      0.146500
     32 H11        -2.3020   -0.4800    6.3540 ha        1 L53      0.173500
     33 H18        -3.1050    2.9350   13.6820 ha        1 L53      0.140500
     34 H19        -4.5010    3.2990   15.6850 ha        1 L53      0.143500
     35 HN21       -6.5840    2.7530   16.8490 hn        1 L53      0.427300
     36 HN2A       -7.8000    1.7940   16.1640 hn        1 L53      0.427300
     37 H22        -7.6340    0.8290   13.9210 ha        1 L53      0.143500
     38 H23        -6.2180    0.4800   11.9290 ha        1 L53      0.140500
     39 H24         0.8100    1.9830    8.1120 ha        1 L53      0.173500
     40 H25         2.2210    1.6420    6.0870 ha        1 L53      0.146500
     41 H26         1.7450   -2.0700    0.3860 h1        1 L53      0.102700
     42 HO27        4.2190   -0.7580    0.1910 ho        1 L53      0.433000
     43 H28         2.5740   -2.7840    2.5660 hc        1 L53      0.073367
     44 H28A        4.0250   -2.8040    1.4980 hc        1 L53      0.073367
     45 H28B        3.7850   -1.4230    2.6510 hc        1 L53      0.073367
     46 H062        0.9540   -1.3700    2.8360 hn        1 L53      0.467800
@<TRIPOS>BOND
     1    1    2 2   
     2    2    3 1   
     3    2    5 1   
     4    3    4 2   
     5    5    6 1   
     6    5   26 1   
     7    5   29 1   
     8    6    7 1   
     9    6   30 1   
    10    6   46 1   
    11    7    8 2   
    12    7    9 1   
    13    9   10 ar  
    14    9   25 ar  
    15   10   11 ar  
    16   10   31 1   
    17   11   12 ar  
    18   11   32 1   
    19   12   13 1   
    20   12   24 ar  
    21   13   14 3   
    22   14   15 1   
    23   15   16 3   
    24   16   17 1   
    25   17   18 ar  
    26   17   23 ar  
    27   18   19 ar  
    28   18   33 1   
    29   19   20 ar  
    30   19   34 1   
    31   20   21 1   
    32   20   22 ar  
    33   21   35 1   
    34   21   36 1   
    35   22   23 ar  
    36   22   37 1   
    37   23   38 1   
    38   24   25 ar  
    39   24   39 1   
    40   25   40 1   
    41   26   27 1   
    42   26   28 1   
    43   26   41 1   
    44   27   42 1   
    45   28   43 1   
    46   28   44 1   
    47   28   45 1   
@<TRIPOS>SUBSTRUCTURE
     1 L53         1 TEMP              0 ****  ****    0 ROOT
