@<TRIPOS>MOLECULE
molecule
   44    44     1     0     0
SMALL
bcc


@<TRIPOS>ATOM
      1 O12          0.0000     0.0000     0.0000 o          1 L54      -0.633100
      2 C4           1.2130     0.0000     0.0000 c          1 L54       0.691100
      3 N9           1.8870     0.0000     1.1680 n          1 L54      -0.389300
      4 O10          3.3020    -0.0000     1.1680 oh         1 L54      -0.355100
      5 C11          1.1530    -0.0000     2.4360 c3         1 L54       0.099300
      6 C3           1.9670    -0.0060    -1.3050 c3         1 L54      -0.157400
      7 C2           0.9760    -0.1120    -2.4660 c3         1 L54      -0.014700
      8 C1           1.7440    -0.2860    -3.7770 c3         1 L54      -0.252600
      9 P5           2.3690    -1.9950    -3.8930 p5         1 L54       1.050700
     10 O7           3.0970    -2.2040    -5.3140 o          1 L54      -0.911833
     11 O6           3.4230    -2.2620    -2.7060 o          1 L54      -0.911833
     12 O8           1.2390    -2.9420    -3.7740 o          1 L54      -0.911833
     13 C13          0.1310     1.1620    -2.5350 c3         1 L54      -0.087400
     14 C14         -0.9410     1.0050    -3.6140 c3         1 L54      -0.068400
     15 C15         -1.7860     2.2800    -3.6820 c3         1 L54      -0.054100
     16 C16         -2.8430     2.1260    -4.7450 ca         1 L54      -0.019300
     17 C17         -4.0790     1.6000    -4.4200 ca         1 L54      -0.130500
     18 C19         -5.0480     1.4590    -5.3950 ca         1 L54      -0.085000
     19 C18         -2.5770     2.5150    -6.0440 ca         1 L54      -0.130500
     20 C20         -3.5480     2.3800    -7.0190 ca         1 L54      -0.085000
     21 C21         -4.7800     1.8420    -6.6960 ca         1 L54      -0.205300
     22 C22         -5.8390     1.6950    -7.7590 c3         1 L54       0.671200
     23 F25         -7.1060     1.8040    -7.1730 f          1 L54      -0.234300
     24 F23         -5.6810     2.7000    -8.7180 f          1 L54      -0.234300
     25 F24         -5.7150     0.4430    -8.3700 f          1 L54      -0.234300
     26 H1           3.6160     0.7610     1.6270 ho         1 L54       0.365000
     27 H2           0.5590     0.9030     2.5100 h1         1 L54       0.029367
     28 H3           1.8560    -0.0390     3.2600 h1         1 L54       0.029367
     29 H4           0.5020    -0.8650     2.4760 h1         1 L54       0.029367
     30 H5           2.5350     0.9110    -1.3970 hc         1 L54       0.106200
     31 H6           2.6420    -0.8530    -1.3270 hc         1 L54       0.106200
     32 H7           0.3280    -0.9670    -2.3110 hc         1 L54       0.088700
     33 H8           1.0830    -0.0860    -4.6120 hc         1 L54       0.021700
     34 H9           2.5770     0.4060    -3.8020 hc         1 L54       0.021700
     35 H12          0.7680     2.0040    -2.7770 hc         1 L54       0.019200
     36 H13         -0.3430     1.3330    -1.5760 hc         1 L54       0.019200
     37 H14         -1.5770     0.1630    -3.3710 hc         1 L54       0.063200
     38 H15         -0.4670     0.8350    -4.5720 hc         1 L54       0.063200
     39 H16         -2.2610     2.4500    -2.7230 hc         1 L54       0.039700
     40 H17         -1.1500     3.1230    -3.9240 hc         1 L54       0.039700
     41 H18         -4.2890     1.3000    -3.4010 ha         1 L54       0.143500
     42 H19         -6.0150     1.0420    -5.1420 ha         1 L54       0.132000
     43 H20         -1.6110     2.9370    -6.2970 ha         1 L54       0.143500
     44 H21         -3.3390     2.6830    -8.0380 ha         1 L54       0.132000
@<TRIPOS>BOND
     1    24    22 1
     2    23    22 1
     3    22    25 1
     4    22    21 1
     5    20    21 ar
     6    20    19 ar
     7    21    18 ar
     8    19    16 ar
     9    18    17 ar
    10    16    17 ar
    11    16    15 1
    12     5     3 1
    13     4     3 1
    14    15    14 1
    15     3     2 1
    16    13    14 1
    17    13     7 1
    18    12     9 1
    19     2     1 2
    20     2     6 1
    21     7     6 1
    22     7     8 1
    23     9     8 1
    24     9    11 1
    25     9    10 1
    26     4    26 1
    27     5    27 1
    28     5    28 1
    29     5    29 1
    30     6    30 1
    31     6    31 1
    32     7    32 1
    33     8    33 1
    34     8    34 1
    35    13    35 1
    36    13    36 1
    37    14    37 1
    38    14    38 1
    39    15    39 1
    40    15    40 1
    41    17    41 1
    42    18    42 1
    43    19    43 1
    44    20    44 1
@<TRIPOS>SUBSTRUCTURE
     1 L54         1 TEMP              0 ****  ****    0 ROOT
