@<TRIPOS>MOLECULE
molecule
   62    65     1     0     0
SMALL
bcc


@<TRIPOS>ATOM
      1 N01          0.0000     0.0000     0.0000 ns         1 L55      -0.468100
      2 C02          1.3990     0.0000     0.0000 ca         1 L55       0.051600
      3 C03          2.0960     0.0000     1.2010 ca         1 L55      -0.142000
      4 C04          3.4770    -0.0010     1.1980 ca         1 L55      -0.075300
      5 C05          4.1660    -0.0000    -0.0010 ca         1 L55      -0.120000
      6 C06          3.4760     0.0000    -1.1990 ca         1 L55      -0.113000
      7 C07          2.0950    -0.0050    -1.2020 ca         1 L55      -0.124000
      8 C08          4.2330    -0.0010     2.5010 c3         1 L55       0.188700
      9 O09          4.4720    -1.3480     2.9120 os         1 L55      -0.319900
     10 C10          5.1480    -1.5260     4.0780 ca         1 L55       0.157100
     11 C11          5.5680    -0.4270     4.8130 ca         1 L55      -0.243000
     12 C12          6.2500    -0.6060     6.0010 ca         1 L55      -0.073000
     13 C13          6.5170    -1.8810     6.4610 ca         1 L55      -0.206000
     14 C14          6.0990    -2.9860     5.7300 ca         1 L55       0.094600
     15 C15          5.4130    -2.8080     4.5370 ca         1 L55      -0.160000
     16 N16          6.3700    -4.2770     6.1960 ns         1 L55      -0.471100
     17 C17          6.6430    -5.2660     5.3210 c          1 L55       0.711700
     18 O18          6.5710    -5.0560     4.1250 o          1 L55      -0.603100
     19 C19          7.0290    -6.5990     5.8140 cc         1 L55      -0.386900
     20 C20          7.1470    -6.9930     7.1660 cc         1 L55       0.354200
     21 N21          7.5070    -8.2460     7.1920 nd         1 L55      -0.512800
     22 N22          7.6350    -8.7090     5.8770 na         1 L55       0.077400
     23 C23          7.3350    -7.7020     5.0420 cd         1 L55      -0.037300
     24 C24          8.0220   -10.0650     5.4810 c3         1 L55       0.058600
     25 C25         -0.6740     0.5110    -1.0490 c          1 L55       0.672100
     26 O26         -0.0730     1.0660    -1.9450 o          1 L55      -0.581100
     27 C27         -2.1750     0.3920    -1.1110 c3         1 L55      -0.111300
     28 S28         -2.7800     1.1680    -2.6290 ss         1 L55      -0.152400
     29 C29         -4.5110     0.8900    -2.4470 ca         1 L55       0.775300
     30 N30         -5.3390     1.3240    -3.3860 nb         1 L55      -0.750000
     31 C31         -6.6430     1.1310    -3.2800 ca         1 L55       0.481100
     32 C32         -7.1400     0.4670    -2.1700 ca         1 L55      -0.394600
     33 C33         -6.2460     0.0270    -1.2060 ca         1 L55       0.481100
     34 N34         -4.9530     0.2470    -1.3750 nb         1 L55      -0.750000
     35 C35         -6.7420    -0.7000     0.0190 c3         1 L55      -0.144900
     36 C36         -7.5770     1.6290    -4.3530 c3         1 L55      -0.144900
     37 H011        -0.5000    -0.3780     0.7800 hn         1 L55       0.327500
     38 H031         1.5560    -0.0000     2.1410 ha         1 L55       0.132000
     39 H051         5.2490     0.0020    -0.0020 ha         1 L55       0.136000
     40 H061         4.0200    -0.0020    -2.1370 ha         1 L55       0.138000
     41 H071         1.5540    -0.0050    -2.1410 ha         1 L55       0.171000
     42 H081         3.6490     0.5100     3.2570 h1         1 L55       0.041200
     43 H082         5.1790     0.5100     2.3690 h1         1 L55       0.041200
     44 H111         5.3600     0.5740     4.4550 ha         1 L55       0.133000
     45 H121         6.5770     0.2540     6.5720 ha         1 L55       0.130000
     46 H131         7.0520    -2.0190     7.3930 ha         1 L55       0.128000
     47 H151         5.0860    -3.6680     3.9650 ha         1 L55       0.180000
     48 H161         6.4660    -4.4410     7.1780 hn         1 L55       0.322500
     49 H201         6.9700    -6.3640     8.0290 h4         1 L55       0.046100
     50 H231         7.3410    -7.7450     3.9590 h4         1 L55       0.194000
     51 H241         7.2240   -10.5130     4.9000 h1         1 L55       0.060367
     52 H243         8.2030   -10.6620     6.3660 h1         1 L55       0.060367
     53 H242         8.9240   -10.0230     4.8820 h1         1 L55       0.060367
     54 H271        -2.6120     0.8880    -0.2520 h1         1 L55       0.095200
     55 H272        -2.4550    -0.6550    -1.1040 h1         1 L55       0.095200
     56 H321        -8.2040     0.2980    -2.0570 ha         1 L55       0.146000
     57 H351        -7.3540    -1.5410    -0.2840 hc         1 L55       0.057367
     58 H352        -7.3310    -0.0240     0.6260 hc         1 L55       0.057367
     59 H353        -5.8960    -1.0570     0.5940 hc         1 L55       0.057367
     60 H361        -8.1300     0.7940    -4.7670 hc         1 L55       0.057367
     61 H363        -8.2700     2.3440    -3.9260 hc         1 L55       0.057367
     62 H362        -7.0030     2.1070    -5.1380 hc         1 L55       0.057367
@<TRIPOS>BOND
     1    12    13 ar
     2    12    11 ar
     3    13    14 ar
     4    11    10 ar
     5     6     5 ar
     6     6     7 ar
     7     5     4 ar
     8    14    16 1
     9    14    15 ar
    10    10    15 ar
    11    10     9 1
    12    16    17 1
    13     7     2 ar
    14    20    21 2
    15    20    19 1
    16    21    22 1
    17     9     8 1
    18    35    33 1
    19     4     8 1
    20     4     3 ar
    21    19    17 1
    22    19    23 2
    23    17    18 2
    24     2     3 ar
    25     2     1 1
    26    22    23 1
    27    22    24 1
    28    33    32 ar
    29    33    34 ar
    30    32    31 ar
    31     1    25 1
    32    34    29 ar
    33    31    36 1
    34    31    30 ar
    35    25    26 2
    36    25    27 1
    37    29    30 ar
    38    29    28 1
    39    27    28 1
    40     1    37 1
    41     3    38 1
    42     5    39 1
    43     6    40 1
    44     7    41 1
    45     8    42 1
    46     8    43 1
    47    11    44 1
    48    12    45 1
    49    13    46 1
    50    15    47 1
    51    16    48 1
    52    20    49 1
    53    23    50 1
    54    24    51 1
    55    24    52 1
    56    24    53 1
    57    27    54 1
    58    27    55 1
    59    32    56 1
    60    35    57 1
    61    35    58 1
    62    35    59 1
    63    36    60 1
    64    36    61 1
    65    36    62 1
@<TRIPOS>SUBSTRUCTURE
     1 L55         1 TEMP              0 ****  ****    0 ROOT
