@<TRIPOS>MOLECULE
L56
   44    44     1     0     0
SMALL
bcc


@<TRIPOS>ATOM
      1 O8           0.0000     0.0000     0.0000 o          1 L56      -0.741167
      2 P5           1.4800     0.0000     0.0000 p5         1 L56       0.460700
      3 O7           2.0160     0.0000     1.5180 o          1 L56      -0.741167
      4 O6           2.0160    -1.3140    -0.7590 o          1 L56      -0.741167
      5 C1           2.0880     1.4890    -0.8590 c3         1 L56      -0.088600
      6 C2           1.5870     2.7380    -0.1310 c3         1 L56       0.048300
      7 C3           0.0670     2.6590     0.0300 c3         1 L56      -0.174400
      8 C4          -0.5820     2.6600    -1.3300 c          1 L56       0.661100
      9 N9          -1.9110     2.4640    -1.4410 n          1 L56      -0.044300
     10 C11         -2.5430     2.4650    -2.7640 c3         1 L56       0.084300
     11 O10         -2.6970     2.2600    -0.2820 oh         1 L56      -0.414100
     12 O12          0.0900     2.8350    -2.3240 o          1 L56      -0.685100
     13 C13          2.2420     2.8200     1.2490 c3         1 L56      -0.118400
     14 C14          3.7500     3.0240     1.0870 c3         1 L56      -0.010400
     15 C15          4.4050     3.1080     2.4660 c3         1 L56       0.012900
     16 C16          5.8900     3.3100     2.3060 ca         1 L56      -0.040300
     17 C18          6.7290     2.2150     2.2230 ca         1 L56      -0.087000
     18 C20          8.0910     2.3990     2.0700 ca         1 L56      -0.111000
     19 C21          8.6130     3.6770     2.0010 ca         1 L56      -0.141000
     20 C19          7.7720     4.7720     2.0840 ca         1 L56      -0.114300
     21 C17          6.4110     4.5880     2.2370 ca         1 L56      -0.113000
     22 C22          8.3400     6.1650     2.0080 c3         1 L56       0.072200
     23 H3           1.7210     1.4930    -1.8780 hc         1 L56       0.015200
     24 H4           3.1710     1.4850    -0.8650 hc         1 L56       0.015200
     25 H5           1.8440     3.6190    -0.7060 hc         1 L56      -0.043300
     26 H6          -0.1930     1.7470     0.5540 hc         1 L56       0.074700
     27 H7          -0.2810     3.5140     0.5970 hc         1 L56       0.074700
     28 H8          -3.6160     2.3690    -2.6520 h1         1 L56      -0.007300
     29 H9          -2.1660     1.6320    -3.3450 h1         1 L56      -0.007300
     30 H10         -2.3150     3.3940    -3.2730 h1         1 L56      -0.007300
     31 H11         -3.4830     2.7770    -0.3390 ho         1 L56       0.342000
     32 H12          1.8220     3.6540     1.7980 hc         1 L56       0.052200
     33 H13          2.0580     1.9010     1.7910 hc         1 L56       0.052200
     34 H14          3.9330     3.9440     0.5430 hc         1 L56       0.012700
     35 H15          4.1700     2.1910     0.5370 hc         1 L56       0.012700
     36 H16          3.9850     3.9420     3.0160 hc         1 L56       0.021700
     37 H17          4.2220     2.1890     3.0100 hc         1 L56       0.021700
     38 H18          6.3260     1.2140     2.3210 ha         1 L56       0.133000
     39 H19          8.7500     1.5410     2.0060 ha         1 L56       0.090000
     40 H20          9.6810     3.8220     1.8930 ha         1 L56       0.085000
     41 H21          5.7500     5.4450     2.2750 ha         1 L56       0.104000
     42 H22          8.2840     6.6320     2.9840 hc         1 L56      -0.005633
     43 H23          9.3750     6.1170     1.6900 hc         1 L56      -0.005633
     44 H24          7.7700     6.7490     1.2950 hc         1 L56      -0.005633
@<TRIPOS>BOND
     1     1     2 1   
     2     2     3 1   
     3     2     4 1   
     4     2     5 1   
     5     5     6 1   
     6     5    23 1   
     7     5    24 1   
     8     6     7 1   
     9     6    13 1   
    10     6    25 1   
    11     7     8 1   
    12     7    26 1   
    13     7    27 1   
    14     8     9 1   
    15     8    12 2   
    16     9    10 1   
    17     9    11 1   
    18    10    28 1   
    19    10    29 1   
    20    10    30 1   
    21    11    31 1   
    22    13    14 1   
    23    13    32 1   
    24    13    33 1   
    25    14    15 1   
    26    14    34 1   
    27    14    35 1   
    28    15    16 1   
    29    15    36 1   
    30    15    37 1   
    31    16    17 ar  
    32    16    21 ar  
    33    17    18 ar  
    34    17    38 1   
    35    18    19 ar  
    36    18    39 1   
    37    19    20 ar  
    38    19    40 1   
    39    20    21 ar  
    40    20    22 1   
    41    21    41 1   
    42    22    42 1   
    43    22    43 1   
    44    22    44 1   
@<TRIPOS>SUBSTRUCTURE
     1 L56         1 TEMP              0 ****  ****    0 ROOT
