@<TRIPOS>MOLECULE
molecule
   44    44     1     0     0
SMALL
bcc


@<TRIPOS>ATOM
      1 O8           0.0000     0.0000     0.0000 o          1 L56      -0.908167
      2 P5           1.4800     0.0000     0.0000 p5         1 L56       1.065700
      3 O7           2.0160     0.0000     1.5180 o          1 L56      -0.908167
      4 O6           2.0160    -1.3140    -0.7590 o          1 L56      -0.908167
      5 C1           2.0880     1.4890    -0.8590 c3         1 L56      -0.268600
      6 C2           1.5870     2.7380    -0.1310 c3         1 L56      -0.005700
      7 C3           0.0670     2.6590     0.0300 c3         1 L56      -0.174400
      8 C4          -0.5820     2.6600    -1.3300 c          1 L56       0.732100
      9 N9          -1.9110     2.4640    -1.4410 n          1 L56      -0.373300
     10 C11         -2.5430     2.4650    -2.7640 c3         1 L56       0.101300
     11 O10         -2.6970     2.2600    -0.2820 oh         1 L56      -0.349100
     12 O12          0.0900     2.8350    -2.3240 o          1 L56      -0.634100
     13 C13          2.2420     2.8200     1.2490 c3         1 L56      -0.119400
     14 C14          3.7500     3.0240     1.0870 c3         1 L56      -0.054400
     15 C15          4.4050     3.1080     2.4660 c3         1 L56      -0.045100
     16 C16          5.8900     3.3100     2.3060 ca         1 L56      -0.043300
     17 C18          6.7290     2.2150     2.2230 ca         1 L56      -0.115000
     18 C20          8.0910     2.3990     2.0700 ca         1 L56      -0.135000
     19 C21          8.6130     3.6770     2.0010 ca         1 L56      -0.159000
     20 C19          7.7720     4.7720     2.0840 ca         1 L56      -0.102300
     21 C17          6.4110     4.5880     2.2370 ca         1 L56      -0.137000
     22 C22          8.3400     6.1650     2.0080 c3         1 L56      -0.039800
     23 H3           1.7210     1.4930    -1.8780 hc         1 L56       0.036200
     24 H4           3.1710     1.4850    -0.8650 hc         1 L56       0.036200
     25 H5           1.8440     3.6190    -0.7060 hc         1 L56      -0.013300
     26 H6          -0.1930     1.7470     0.5540 hc         1 L56       0.095200
     27 H7          -0.2810     3.5140     0.5970 hc         1 L56       0.095200
     28 H8          -3.6160     2.3690    -2.6520 h1         1 L56       0.026033
     29 H9          -2.1660     1.6320    -3.3450 h1         1 L56       0.026033
     30 H10         -2.3150     3.3940    -3.2730 h1         1 L56       0.026033
     31 H11         -3.4830     2.7770    -0.3390 ho         1 L56       0.350000
     32 H12          1.8220     3.6540     1.7980 hc         1 L56       0.068700
     33 H13          2.0580     1.9010     1.7910 hc         1 L56       0.068700
     34 H14          3.9330     3.9440     0.5430 hc         1 L56       0.036700
     35 H15          4.1700     2.1910     0.5370 hc         1 L56       0.036700
     36 H16          3.9850     3.9420     3.0160 hc         1 L56       0.052200
     37 H17          4.2220     2.1890     3.0100 hc         1 L56       0.052200
     38 H18          6.3260     1.2140     2.3210 ha         1 L56       0.159000
     39 H19          8.7500     1.5410     2.0060 ha         1 L56       0.115000
     40 H20          9.6810     3.8220     1.8930 ha         1 L56       0.104000
     41 H21          5.7500     5.4450     2.2750 ha         1 L56       0.124000
     42 H22          8.2840     6.6320     2.9840 hc         1 L56       0.028367
     43 H23          9.3750     6.1170     1.6900 hc         1 L56       0.028367
     44 H24          7.7700     6.7490     1.2950 hc         1 L56       0.028367
@<TRIPOS>BOND
     1    18    19 ar
     2    18    17 ar
     3    19    20 ar
     4    17    16 ar
     5    20    22 1
     6    20    21 ar
     7    16    21 ar
     8    16    15 1
     9    15    14 1
    10    10     9 1
    11    11     9 1
    12    13    14 1
    13    13     6 1
    14     9     8 1
    15     1     2 1
    16     8    12 2
    17     8     7 1
    18     6     7 1
    19     6     5 1
    20     5     2 1
    21     2     4 1
    22     2     3 1
    23     5    23 1
    24     5    24 1
    25     6    25 1
    26     7    26 1
    27     7    27 1
    28    10    28 1
    29    10    29 1
    30    10    30 1
    31    11    31 1
    32    13    32 1
    33    13    33 1
    34    14    34 1
    35    14    35 1
    36    15    36 1
    37    15    37 1
    38    17    38 1
    39    18    39 1
    40    19    40 1
    41    21    41 1
    42    22    42 1
    43    22    43 1
    44    22    44 1
@<TRIPOS>SUBSTRUCTURE
     1 L56         1 TEMP              0 ****  ****    0 ROOT
