@<TRIPOS>MOLECULE
L57
   31    32     1     0     0
SMALL
bcc


@<TRIPOS>ATOM
      1 Cl1          0.0000     0.0000     0.0000 cl         1 L57      -0.041400
      2 C06          1.7360     0.0000     0.0000 ca         1 L57      -0.035600
      3 C01          2.4260     0.0000     1.2010 ca         1 L57      -0.112000
      4 C05          2.4270    -0.0060    -1.2010 ca         1 L57      -0.031600
      5 Cl2          1.5560    -0.0130    -2.7020 cl         1 L57      -0.000400
      6 C04          3.8070    -0.0060    -1.2050 ca         1 L57      -0.043000
      7 C03          4.5060     0.0010     0.0020 ca         1 L57      -0.123900
      8 C02          3.8050     0.0010     1.2080 ca         1 L57      -0.087000
      9 C07          5.9880     0.0000     0.0030 ce         1 L57       0.397500
     10 N14          6.6400    -0.6890    -0.8880 n2         1 L57      -0.377200
     11 O15          5.9370    -1.5260    -1.7880 os         1 L57      -0.139300
     12 C16          6.7780    -2.2220    -2.7110 c3         1 L57       0.097400
     13 C17          5.9290    -3.0780    -3.6150 c          1 L57       0.975600
     14 O19          4.7280    -3.0910    -3.4840 o          1 L57      -0.881800
     15 O18          6.5090    -3.8270    -4.5680 o          1 L57      -0.881800
     16 C08          6.7270     0.7850     1.0200 ca         1 L57      -0.066900
     17 C13          8.0910     0.5660     1.2170 ca         1 L57      -0.100500
     18 C12          8.7740     1.3000     2.1640 ca         1 L57      -0.115500
     19 C11          8.1100     2.2510     2.9190 ca         1 L57      -0.123000
     20 C10          6.7570     2.4720     2.7280 ca         1 L57      -0.115500
     21 C09          6.0640     1.7490     1.7780 ca         1 L57      -0.100500
     22 H1           1.8800     0.0000     2.1370 ha         1 L57       0.106000
     23 H2           4.3470    -0.0080    -2.1440 ha         1 L57       0.153000
     24 H3           4.3430     0.0030     2.1490 ha         1 L57       0.116000
     25 H4           7.4710    -2.8510    -2.1650 h1         1 L57      -0.003300
     26 H5           7.3310    -1.5060    -3.3070 h1         1 L57      -0.003300
     27 H7           8.5960    -0.2260     0.6780 ha         1 L57       0.124500
     28 H8           9.8330     1.1320     2.3180 ha         1 L57       0.096500
     29 H9           8.6510     2.8250     3.6620 ha         1 L57       0.093000
     30 H10          6.2410     3.2130     3.3270 ha         1 L57       0.096500
     31 H11          5.3380     2.4930     1.4760 ha         1 L57       0.124500
@<TRIPOS>BOND
     1     1     2 1   
     2     2     3 ar  
     3     2     4 ar  
     4     3     8 ar  
     5     3    22 1   
     6     4     5 1   
     7     4     6 ar  
     8     6     7 ar  
     9     6    23 1   
    10     7     8 ar  
    11     7     9 1   
    12     8    24 1   
    13     9    10 2   
    14     9    16 1   
    15    10    11 1   
    16    11    12 1   
    17    12    13 1   
    18    12    25 1   
    19    12    26 1   
    20    13    14 1   
    21    13    15 1   
    22    16    17 ar  
    23    16    21 ar  
    24    17    18 ar  
    25    17    27 1   
    26    18    19 ar  
    27    18    28 1   
    28    19    20 ar  
    29    19    29 1   
    30    20    21 ar  
    31    20    30 1   
    32    21    31 1   
@<TRIPOS>SUBSTRUCTURE
     1 L57         1 TEMP              0 ****  ****    0 ROOT
