@<TRIPOS>MOLECULE
molecule
   31    32     1     0     0
SMALL
bcc


@<TRIPOS>ATOM
      1 Cl1          0.0000     0.0000     0.0000 cl         1 L57      -0.117400
      2 C06          1.7360     0.0000     0.0000 ca         1 L57       0.029400
      3 C01          2.4260     0.0000     1.2010 ca         1 L57      -0.136000
      4 C05          2.4270    -0.0060    -1.2010 ca         1 L57       0.035400
      5 Cl2          1.5560    -0.0130    -2.7020 cl         1 L57      -0.084400
      6 C04          3.8070    -0.0060    -1.2050 ca         1 L57      -0.054000
      7 C03          4.5060     0.0010     0.0020 ca         1 L57      -0.135900
      8 C02          3.8050     0.0010     1.2080 ca         1 L57      -0.107000
      9 C07          5.9880     0.0000     0.0030 ce         1 L57       0.423500
     10 N14          6.6400    -0.6890    -0.8880 n2         1 L57      -0.426200
     11 O15          5.9370    -1.5260    -1.7880 os         1 L57      -0.153300
     12 C16          6.7780    -2.2220    -2.7110 c3         1 L57       0.022400
     13 C17          5.9290    -3.0780    -3.6150 c          1 L57       0.894600
     14 O19          4.7280    -3.0910    -3.4840 o          1 L57      -0.825300
     15 O18          6.5090    -3.8270    -4.5680 o          1 L57      -0.825300
     16 C08          6.7270     0.7850     1.0200 ca         1 L57      -0.072900
     17 C13          8.0910     0.5660     1.2170 ca         1 L57      -0.116500
     18 C12          8.7740     1.3000     2.1640 ca         1 L57      -0.143500
     19 C11          8.1100     2.2510     2.9190 ca         1 L57      -0.142000
     20 C10          6.7570     2.4720     2.7280 ca         1 L57      -0.143500
     21 C09          6.0640     1.7490     1.7780 ca         1 L57      -0.116500
     22 H1           1.8800     0.0000     2.1370 ha         1 L57       0.135000
     23 H2           4.3470    -0.0080    -2.1440 ha         1 L57       0.187000
     24 H3           4.3430     0.0030     2.1490 ha         1 L57       0.142000
     25 H4           7.3310    -1.5060    -3.3070 h1         1 L57       0.029200
     26 H5           7.4710    -2.8510    -2.1650 h1         1 L57       0.029200
     27 H7           8.6250    -0.1300     0.5820 ha         1 L57       0.152000
     28 H8           9.8330     1.1310     2.3180 ha         1 L57       0.124000
     29 H9           8.6510     2.8250     3.6630 ha         1 L57       0.118000
     30 H10          6.2410     3.2130     3.3270 ha         1 L57       0.124000
     31 H11          5.3370     2.4930     1.4770 ha         1 L57       0.152000
@<TRIPOS>BOND
     1     1     2 1
     2     5     4 1
     3     2     4 ar
     4     2     3 ar
     5     4     6 ar
     6     3     8 ar
     7     6     7 ar
     8     8     7 ar
     9     7     9 1
    10     9    16 1
    11     9    10 2
    12    21    16 ar
    13    21    20 ar
    14    16    17 ar
    15    10    11 1
    16    20    19 ar
    17    11    12 1
    18    17    18 ar
    19    12    13 1
    20    19    18 ar
    21    14    13 1
    22    13    15 1
    23     3    22 1
    24     6    23 1
    25     8    24 1
    26    12    25 1
    27    12    26 1
    28    17    27 1
    29    18    28 1
    30    19    29 1
    31    20    30 1
    32    21    31 1
@<TRIPOS>SUBSTRUCTURE
     1 L57         1 TEMP              0 ****  ****    0 ROOT
