@<TRIPOS>MOLECULE
L58
   41    42     1     0     0
SMALL
bcc


@<TRIPOS>ATOM
      1 O2           0.0000     0.0000     0.0000 o          1 L58      -0.617100
      2 C15          1.2130     0.0000     0.0000 c          1 L58       0.576100
      3 N2           1.8860     0.0000     1.1670 ns         1 L58      -0.048400
      4 O3           1.1780     0.0010     2.3940 oh         1 L58      -0.435100
      5 C14          1.9670    -0.0060    -1.3040 c3         1 L58      -0.052300
      6 C16          2.8460     1.2420    -1.3920 c3         1 L58       0.179100
      7 O4           2.0400     2.4070    -1.2060 oh         1 L58      -0.584800
      8 C17          3.5160     1.2990    -2.7670 c3         1 L58      -0.058100
      9 N1           1.0150    -0.0120    -2.4180 ns         1 L58      -0.156900
     10 C1           1.3810    -0.5120    -3.6150 c          1 L58       0.599700
     11 O1           2.5020    -0.9580    -3.7710 o          1 L58      -0.673100
     12 C2           0.4220    -0.5180    -4.7370 ca         1 L58      -0.157600
     13 C7          -0.8640    -0.0010    -4.5610 ca         1 L58      -0.052500
     14 C6          -1.7580    -0.0070    -5.6090 ca         1 L58      -0.111500
     15 C5          -1.3800    -0.5300    -6.8460 cp         1 L58      -0.010000
     16 C4          -0.0960    -1.0470    -7.0230 ca         1 L58      -0.111500
     17 C3           0.8010    -1.0360    -5.9790 ca         1 L58      -0.052500
     18 C8          -2.3440    -0.5360    -7.9720 cp         1 L58      -0.029000
     19 C13         -3.6250    -0.0160    -7.8000 ca         1 L58      -0.092500
     20 C12         -4.5180    -0.0240    -8.8520 ca         1 L58      -0.080000
     21 C11         -4.1420    -0.5470   -10.0780 ca         1 L58       0.036100
     22 Br          -5.3710    -0.5550   -11.5150 br         1 L58      -0.131100
     23 C10         -2.8710    -1.0660   -10.2540 ca         1 L58      -0.080000
     24 C9          -1.9690    -1.0570    -9.2100 ca         1 L58      -0.092500
     25 H12          2.8870    -0.0180     1.1680 hn         1 L58       0.155500
     26 H13          1.7900     0.0430     3.1100 ho         1 L58       0.393000
     27 H1           2.5900    -0.8910    -1.3570 h1         1 L58       0.069700
     28 H2           3.6060     1.2030    -0.6210 h1         1 L58      -0.008300
     29 H17          2.5820     3.1210    -0.9140 ho         1 L58       0.394000
     30 H15          3.9440     0.3320    -3.0000 hc         1 L58       0.028700
     31 H14          4.2990     2.0470    -2.7560 hc         1 L58       0.028700
     32 H16          2.7790     1.5590    -3.5170 hc         1 L58       0.028700
     33 H3           0.0830     0.3250    -2.2810 hn         1 L58       0.209500
     34 H7          -1.1580     0.4050    -3.6010 ha         1 L58       0.119500
     35 H6          -2.7550     0.3940    -5.4720 ha         1 L58       0.115500
     36 H5           0.1970    -1.4500    -7.9850 ha         1 L58       0.115500
     37 H4           1.7980    -1.4370    -6.1170 ha         1 L58       0.119500
     38 H11         -3.9200     0.3940    -6.8420 ha         1 L58       0.117000
     39 H10         -5.5140     0.3810    -8.7180 ha         1 L58       0.117000
     40 H9          -2.5820    -1.4720   -11.2160 ha         1 L58       0.117000
     41 H8          -0.9740    -1.4630    -9.3500 ha         1 L58       0.117000
@<TRIPOS>BOND
     1     1     2 2   
     2     2     3 1   
     3     2     5 1   
     4     3     4 1   
     5     3    25 1   
     6     4    26 1   
     7     5     6 1   
     8     5     9 1   
     9     5    27 1   
    10     6     7 1   
    11     6     8 1   
    12     6    28 1   
    13     7    29 1   
    14     8    30 1   
    15     8    31 1   
    16     8    32 1   
    17     9    10 1   
    18     9    33 1   
    19    10    11 2   
    20    10    12 1   
    21    12    13 ar  
    22    12    17 ar  
    23    13    14 ar  
    24    13    34 1   
    25    14    15 ar  
    26    14    35 1   
    27    15    16 ar  
    28    15    18 1   
    29    16    17 ar  
    30    16    36 1   
    31    17    37 1   
    32    18    19 ar  
    33    18    24 ar  
    34    19    20 ar  
    35    19    38 1   
    36    20    21 ar  
    37    20    39 1   
    38    21    22 1   
    39    21    23 ar  
    40    23    24 ar  
    41    23    40 1   
    42    24    41 1   
@<TRIPOS>SUBSTRUCTURE
     1 L58         1 TEMP              0 ****  ****    0 ROOT
