@<TRIPOS>MOLECULE
molecule
   41    42     1     0     0
SMALL
bcc


@<TRIPOS>ATOM
      1 O2           0.0000     0.0000     0.0000 o          1 L58      -0.570100
      2 C15          1.2130     0.0000     0.0000 c          1 L58       0.674100
      3 N2           1.8860     0.0000     1.1670 ns         1 L58      -0.470400
      4 O3           1.1780     0.0010     2.3940 oh         1 L58      -0.357100
      5 C14          1.9670    -0.0060    -1.3040 c3         1 L58       0.063700
      6 C16          2.8460     1.2420    -1.3920 c3         1 L58       0.131100
      7 O4           2.0400     2.4070    -1.2060 oh         1 L58      -0.599800
      8 C17          3.5160     1.2990    -2.7670 c3         1 L58      -0.125100
      9 N1           1.0150    -0.0120    -2.4180 ns         1 L58      -0.554900
     10 C1           1.3810    -0.5120    -3.6150 c          1 L58       0.680700
     11 O1           2.5020    -0.9580    -3.7710 o          1 L58      -0.628100
     12 C2           0.4220    -0.5180    -4.7370 ca         1 L58      -0.145600
     13 C7          -0.8640    -0.0010    -4.5610 ca         1 L58      -0.080500
     14 C6          -1.7580    -0.0070    -5.6090 ca         1 L58      -0.130000
     15 C5          -1.3800    -0.5300    -6.8460 cp         1 L58      -0.014000
     16 C4          -0.0960    -1.0470    -7.0230 ca         1 L58      -0.130000
     17 C3           0.8010    -1.0360    -5.9790 ca         1 L58      -0.080500
     18 C8          -2.3440    -0.5360    -7.9720 cp         1 L58      -0.030000
     19 C13         -3.6250    -0.0160    -7.8000 ca         1 L58      -0.116000
     20 C12         -4.5180    -0.0240    -8.8520 ca         1 L58      -0.101000
     21 C11         -4.1420    -0.5470   -10.0780 ca         1 L58      -0.015900
     22 Br          -5.3710    -0.5550   -11.5150 br         1 L58      -0.094100
     23 C10         -2.8710    -1.0660   -10.2540 ca         1 L58      -0.101000
     24 C9          -1.9690    -1.0570    -9.2100 ca         1 L58      -0.116000
     25 H12          2.8870    -0.0180     1.1680 hn         1 L58       0.318500
     26 H13          1.7900     0.0430     3.1100 ho         1 L58       0.400000
     27 H1           2.5900    -0.8910    -1.3570 h1         1 L58       0.099700
     28 H2           3.6060     1.2030    -0.6210 h1         1 L58       0.022700
     29 H17          2.5820     3.1210    -0.9140 ho         1 L58       0.406000
     30 H15          3.9440     0.3320    -3.0000 hc         1 L58       0.055700
     31 H14          4.2990     2.0470    -2.7560 hc         1 L58       0.055700
     32 H16          2.7790     1.5590    -3.5170 hc         1 L58       0.055700
     33 H3           0.0830     0.3250    -2.2810 hn         1 L58       0.347500
     34 H7          -1.1580     0.4050    -3.6010 ha         1 L58       0.147500
     35 H6          -2.7550     0.3940    -5.4720 ha         1 L58       0.139000
     36 H5           0.1970    -1.4500    -7.9850 ha         1 L58       0.139000
     37 H4           1.7980    -1.4370    -6.1170 ha         1 L58       0.147500
     38 H11         -3.9200     0.3940    -6.8420 ha         1 L58       0.141000
     39 H10         -5.5140     0.3810    -8.7180 ha         1 L58       0.146000
     40 H9          -2.5820    -1.4720   -11.2160 ha         1 L58       0.146000
     41 H8          -0.9740    -1.4630    -9.3500 ha         1 L58       0.141000
@<TRIPOS>BOND
     1     8     6 1
     2     7     6 1
     3     6     5 1
     4     1     2 2
     5     4     3 1
     6     2     3 1
     7     2     5 1
     8     5     9 1
     9     9    10 1
    10    10    11 2
    11    10    12 1
    12    13    12 ar
    13    13    14 ar
    14    12    17 ar
    15    14    15 ar
    16    17    16 ar
    17    15    16 ar
    18    15    18 1
    19    19    18 ar
    20    19    20 ar
    21    18    24 ar
    22    20    21 ar
    23    24    23 ar
    24    21    23 ar
    25    21    22 1
    26     3    25 1
    27     4    26 1
    28     5    27 1
    29     6    28 1
    30     7    29 1
    31     8    30 1
    32     8    31 1
    33     8    32 1
    34     9    33 1
    35    13    34 1
    36    14    35 1
    37    16    36 1
    38    17    37 1
    39    19    38 1
    40    20    39 1
    41    23    40 1
    42    24    41 1
@<TRIPOS>SUBSTRUCTURE
     1 L58         1 TEMP              0 ****  ****    0 ROOT
