@<TRIPOS>MOLECULE
L59
   43    44     1     0     0
SMALL
bcc


@<TRIPOS>ATOM
      1 O2           0.0000     0.0000     0.0000 o          1 L59      -0.615100
      2 C17          1.2130     0.0000     0.0000 c          1 L59       0.605100
      3 N2           1.8870     0.0000     1.1670 ns         1 L59      -0.055400
      4 O3           1.1820     0.0960     2.3910 oh         1 L59      -0.507100
      5 C16          1.9660    -0.0040    -1.3050 c3         1 L59      -0.095300
      6 C18          2.2760     1.4360    -1.7200 c3         1 L59       0.207100
      7 O4           2.8940     1.4380    -3.0090 oh         1 L59      -0.583800
      8 C19          3.2230     2.0680    -0.6990 c3         1 L59      -0.016100
      9 N1           1.1490    -0.6450    -2.3380 ns         1 L59      -0.202900
     10 C1           1.7410    -1.2170    -3.4060 c          1 L59       0.609700
     11 O1           2.9520    -1.2000    -3.5120 o          1 L59      -0.624100
     12 C2           0.9170    -1.8630    -4.4480 ca         1 L59      -0.158600
     13 C7           1.5300    -2.4570    -5.5550 ca         1 L59      -0.070500
     14 C6           0.7700    -3.0540    -6.5190 ca         1 L59      -0.112500
     15 C5          -0.6240    -3.0740    -6.3970 ca         1 L59       0.110000
     16 C4          -1.2380    -2.4790    -5.2880 ca         1 L59      -0.112500
     17 C3          -0.4750    -1.8870    -4.3220 ca         1 L59      -0.070500
     18 C8          -1.4230    -3.7000    -7.4070 cg         1 L59      -0.115000
     19 C9          -2.0950    -4.2110    -8.2230 ch         1 L59      -0.099000
     20 C10         -2.7130    -4.8680    -9.3840 ca         1 L59       0.084000
     21 C15         -2.3580    -4.6280   -10.5140 ca         1 L59      -0.105500
     22 C14         -2.9860    -5.2860   -11.5540 ca         1 L59      -0.116000
     23 C13         -3.8640    -6.0900   -11.5020 ca         1 L59      -0.065000
     24 C12         -4.3720    -6.4600   -10.2040 ca         1 L59      -0.116000
     25 C11         -3.7730    -5.8310    -9.1920 ca         1 L59      -0.105500
     26 H13          2.7400     0.1340     1.6740 hn         1 L59       0.195500
     27 H14          1.6130     0.6250     3.0410 ho         1 L59       0.399000
     28 H1           2.8930    -0.5530    -1.1850 h1         1 L59       0.067700
     29 H2           1.3560     2.0060    -1.7610 h1         1 L59       0.008700
     30 H18          2.4390     1.8530    -3.7220 ho         1 L59       0.400000
     31 H17          4.0140     1.4380    -0.3140 hc         1 L59       0.009033
     32 H16          3.6010     2.9950    -1.1140 hc         1 L59       0.009033
     33 H15          2.5390     2.2710     0.1160 hc         1 L59       0.009033
     34 H3           0.2320    -0.7860    -1.9630 hn         1 L59       0.210500
     35 H7           2.5820    -2.6840    -5.6810 ha         1 L59       0.117000
     36 H6           1.6090    -3.4550    -7.0750 ha         1 L59       0.124000
     37 H5          -2.3100    -2.5960    -5.1810 ha         1 L59       0.124000
     38 H4          -0.8330    -1.3140    -3.4760 ha         1 L59       0.117000
     39 H12         -1.6580    -3.8950   -10.8970 ha         1 L59       0.110000
     40 H11         -2.6140    -4.9550   -12.5160 ha         1 L59       0.106000
     41 H10         -4.3810    -6.6620   -12.2630 ha         1 L59       0.107000
     42 H9          -4.8290    -7.3550    -9.8000 ha         1 L59       0.106000
     43 H8          -4.2010    -5.9080    -8.2000 ha         1 L59       0.110000
@<TRIPOS>BOND
     1     1     2 2   
     2     2     3 1   
     3     2     5 1   
     4     3     4 1   
     5     3    26 1   
     6     4    27 1   
     7     5     6 1   
     8     5     9 1   
     9     5    28 1   
    10     6     7 1   
    11     6     8 1   
    12     6    29 1   
    13     7    30 1   
    14     8    31 1   
    15     8    32 1   
    16     8    33 1   
    17     9    10 1   
    18     9    34 1   
    19    10    11 2   
    20    10    12 1   
    21    12    13 ar  
    22    12    17 ar  
    23    13    14 ar  
    24    13    35 1   
    25    14    15 ar  
    26    14    36 1   
    27    15    16 ar  
    28    15    18 1   
    29    16    17 ar  
    30    16    37 1   
    31    17    38 1   
    32    18    19 3   
    33    19    20 1   
    34    20    21 ar  
    35    20    25 ar  
    36    21    22 ar  
    37    21    39 1   
    38    22    23 ar  
    39    22    40 1   
    40    23    24 ar  
    41    23    41 1   
    42    24    25 ar  
    43    24    42 1   
    44    25    43 1   
@<TRIPOS>SUBSTRUCTURE
     1 L59         1 TEMP              0 ****  ****    0 ROOT
