@<TRIPOS>MOLECULE
molecule
   62    65     1     0     0
SMALL
bcc


@<TRIPOS>ATOM
      1 C11          0.0000     0.0000     0.0000 ca         1 L5C      -0.175000
      2 C13          0.0040     0.0110     2.3980 ca         1 L5C       0.022600
      3 C14          1.3930     0.0110     2.3970 ca         1 L5C      -0.107500
      4 C15          2.0820     0.0000     1.2010 ca         1 L5C      -0.175000
      5 C17         -1.8770    -0.6180     3.7130 c          1 L5C       0.711700
      6 C19         -2.6680    -0.5140     4.9540 cc         1 L5C      -0.385900
      7 C20         -2.3210     0.2220     6.1090 cc         1 L5C       0.353200
      8 C02          4.8640     1.1960    -4.4180 ca         1 L5C       0.048600
      9 C03          4.3330     1.1960    -3.1340 ca         1 L5C      -0.140000
     10 C04          4.0700     0.0000    -2.4960 ca         1 L5C      -0.078300
     11 C05          4.3340    -1.1980    -3.1340 ca         1 L5C      -0.118000
     12 C06          4.8620    -1.2020    -4.4120 ca         1 L5C      -0.115000
     13 C07          5.1220    -0.0090    -5.0580 ca         1 L5C      -0.115000
     14 C08          3.4950    -0.0000    -1.1030 c3         1 L5C       0.188700
     15 C10          1.3870     0.0000     0.0000 ca         1 L5C       0.125100
     16 C12         -0.6900     0.0060     1.1950 ca         1 L5C      -0.107500
     17 N16         -0.6960     0.0220     3.6120 ns         1 L5C      -0.473100
     18 O18         -2.2910    -1.2830     2.7830 o          1 L5C      -0.611100
     19 N21         -3.2730     0.0660     6.9880 nd         1 L5C      -0.512800
     20 N22         -4.2600    -0.7650     6.4440 na         1 L5C       0.076400
     21 C23         -3.8870    -1.1110     5.2010 cd         1 L5C      -0.038300
     22 C24         -5.4930    -1.1820     7.1150 c3         1 L5C       0.058600
     23 C25          6.1990     2.5110    -5.8820 c          1 L5C       0.672100
     24 O26          6.8790     1.5360    -6.1210 o          1 L5C      -0.580100
     25 C27          6.5470     3.8410    -6.4990 c3         1 L5C      -0.110300
     26 S28          8.0200     3.6570    -7.5370 ss         1 L5C      -0.152400
     27 C29          8.1960     5.3130    -8.1130 ca         1 L5C       0.776300
     28 N30          9.1950     5.6110    -8.9320 nb         1 L5C      -0.750500
     29 C31          9.3550     6.8430    -9.3830 ca         1 L5C       0.481100
     30 C32          8.4630     7.8290    -8.9910 ca         1 L5C      -0.394600
     31 C33          7.4290     7.4830    -8.1340 ca         1 L5C       0.481100
     32 N34          7.3230     6.2300    -7.7230 nb         1 L5C      -0.750500
     33 C35          6.4360     8.5220    -7.6810 c3         1 L5C      -0.145400
     34 C36         10.4950     7.1730   -10.3130 c3         1 L5C      -0.145400
     35 H111        -0.5420    -0.0020    -0.9380 ha         1 L5C       0.141500
     36 H141         1.9360     0.0130     3.3350 ha         1 L5C       0.147500
     37 H151         3.1650    -0.0000     1.2000 ha         1 L5C       0.141500
     38 H201        -1.4230     0.8130     6.2420 h4         1 L5C       0.046100
     39 H011         4.5950     3.2200    -4.8400 hn         1 L5C       0.326500
     40 H031         4.1260     2.1340    -2.6330 ha         1 L5C       0.132000
     41 H051         4.1280    -2.1350    -2.6310 ha         1 L5C       0.136000
     42 H061         5.0650    -2.1420    -4.9100 ha         1 L5C       0.138000
     43 H071         5.5360    -0.0140    -6.0590 ha         1 L5C       0.167000
     44 H081         3.8280    -0.8850    -0.5750 h1         1 L5C       0.041200
     45 H082         3.8290     0.8840    -0.5740 h1         1 L5C       0.041200
     46 H121        -1.7730     0.0060     1.1950 ha         1 L5C       0.147500
     47 H161        -0.3310     0.5270     4.3950 hn         1 L5C       0.320500
     48 H231        -4.4390    -1.7470     4.5200 h4         1 L5C       0.193000
     49 H241        -5.5170    -2.2620     7.1880 h1         1 L5C       0.060033
     50 H243        -6.3480    -0.8390     6.5440 h1         1 L5C       0.060033
     51 H242        -5.5260    -0.7520     8.1090 h1         1 L5C       0.060033
     52 H271         6.7460     4.5630    -5.7160 h1         1 L5C       0.094700
     53 H272         5.7190     4.1860    -7.1060 h1         1 L5C       0.094700
     54 H321         8.5720     8.8470    -9.3450 ha         1 L5C       0.146000
     55 H353         6.0150     9.0210    -8.5460 hc         1 L5C       0.057367
     56 H352         5.6420     8.0420    -7.1200 hc         1 L5C       0.057367
     57 H351         6.9340     9.2480    -7.0520 hc         1 L5C       0.057367
     58 H363        11.0730     6.2770   -10.5060 hc         1 L5C       0.057367
     59 H362        11.1300     7.9210    -9.8540 hc         1 L5C       0.057367
     60 H361        10.1000     7.5560   -11.2460 hc         1 L5C       0.057367
     61 O09          2.0670     0.0000    -1.1780 os         1 L5C      -0.325900
     62 N01          5.1310     2.4060    -5.0660 ns         1 L5C      -0.469100
@<TRIPOS>BOND
     1    12    11 ar
     2    12    13 ar
     3    11    10 ar
     4    13     8 ar
     5    16     1 ar
     6    16     2 ar
     7     7    19 2
     8     7     6 1
     9     1    15 ar
    10    19    20 1
    11    10    14 1
    12    10     9 ar
    13    14    61 1
    14    33    31 1
    15    17     2 1
    16    17     5 1
    17     2     3 ar
    18    15    61 1
    19    15     4 ar
    20     8     9 ar
    21     8    62 1
    22     6     5 1
    23     6    21 2
    24    20    22 1
    25    20    21 1
    26     3     4 ar
    27     5    18 2
    28    31    30 ar
    29    31    32 ar
    30    30    29 ar
    31    62    23 1
    32    32    27 ar
    33    29    34 1
    34    29    28 ar
    35    23    24 2
    36    23    25 1
    37    27    28 ar
    38    27    26 1
    39    25    26 1
    40     1    35 1
    41     3    36 1
    42     4    37 1
    43     7    38 1
    44    62    39 1
    45     9    40 1
    46    11    41 1
    47    12    42 1
    48    13    43 1
    49    14    44 1
    50    14    45 1
    51    16    46 1
    52    17    47 1
    53    21    48 1
    54    22    49 1
    55    22    50 1
    56    22    51 1
    57    25    52 1
    58    25    53 1
    59    30    54 1
    60    33    55 1
    61    33    56 1
    62    33    57 1
    63    34    58 1
    64    34    59 1
    65    34    60 1
@<TRIPOS>SUBSTRUCTURE
     1 L5C         1 TEMP              0 ****  ****    0 ROOT
