@<TRIPOS>MOLECULE
L5C
   62    65     1     0     0
SMALL
bcc


@<TRIPOS>ATOM
      1 C11          0.0000     0.0000     0.0000 ca         1 L5C      -0.160000
      2 C13          0.0040     0.0110     2.3980 ca         1 L5C      -0.127400
      3 C14          1.3930     0.0110     2.3970 ca         1 L5C      -0.074500
      4 C15          2.0820     0.0000     1.2010 ca         1 L5C      -0.160000
      5 C17         -1.8770    -0.6180     3.7130 c          1 L5C       0.629700
      6 C19         -2.6680    -0.5140     4.9540 cc         1 L5C      -0.404900
      7 C20         -2.3210     0.2220     6.1090 cc         1 L5C       0.415200
      8 C02          4.8640     1.1960    -4.4180 ca         1 L5C      -0.098400
      9 C03          4.3330     1.1960    -3.1340 ca         1 L5C      -0.110000
     10 C04          4.0700     0.0000    -2.4960 ca         1 L5C      -0.094300
     11 C05          4.3340    -1.1980    -3.1340 ca         1 L5C      -0.087000
     12 C06          4.8620    -1.2020    -4.4120 ca         1 L5C      -0.084000
     13 C07          5.1220    -0.0090    -5.0580 ca         1 L5C      -0.092000
     14 C08          3.4950    -0.0000    -1.1030 c3         1 L5C       0.262700
     15 C10          1.3870     0.0000     0.0000 ca         1 L5C       0.137100
     16 C12         -0.6900     0.0060     1.1950 ca         1 L5C      -0.074500
     17 N16         -0.6960     0.0220     3.6120 ns         1 L5C      -0.030100
     18 O18         -2.2910    -1.2830     2.7830 o          1 L5C      -0.653100
     19 N21         -3.2730     0.0660     6.9880 nd         1 L5C      -0.652800
     20 N22         -4.2600    -0.7650     6.4440 na         1 L5C       0.503400
     21 C23         -3.8870    -1.1110     5.2010 cd         1 L5C      -0.174300
     22 C24         -5.4930    -1.1820     7.1150 c3         1 L5C       0.019600
     23 C25          6.1990     2.5110    -5.8820 c          1 L5C       0.574100
     24 O26          6.8790     1.5360    -6.1210 o          1 L5C      -0.608100
     25 C27          6.5470     3.8410    -6.4990 c3         1 L5C      -0.005300
     26 S28          8.0200     3.6570    -7.5370 ss         1 L5C      -0.308400
     27 C29          8.1960     5.3130    -8.1130 ca         1 L5C       0.737300
     28 N30          9.1950     5.6110    -8.9320 nb         1 L5C      -0.629000
     29 C31          9.3550     6.8430    -9.3830 ca         1 L5C       0.430600
     30 C32          8.4630     7.8290    -8.9910 ca         1 L5C      -0.357600
     31 C33          7.4290     7.4830    -8.1340 ca         1 L5C       0.430600
     32 N34          7.3230     6.2300    -7.7230 nb         1 L5C      -0.629000
     33 C35          6.4360     8.5220    -7.6810 c3         1 L5C      -0.042900
     34 C36         10.4950     7.1730   -10.3130 c3         1 L5C      -0.042900
     35 H111        -0.5420    -0.0020    -0.9380 ha         1 L5C       0.118500
     36 H141         1.9360     0.0130     3.3350 ha         1 L5C       0.121500
     37 H151         3.1650    -0.0000     1.2000 ha         1 L5C       0.118500
     38 H201        -1.4230     0.8130     6.2420 h4         1 L5C       0.001100
     39 H011         4.5950     3.2200    -4.8400 hn         1 L5C       0.166500
     40 H031         4.1260     2.1340    -2.6330 ha         1 L5C       0.108000
     41 H051         4.1280    -2.1350    -2.6310 ha         1 L5C       0.108000
     42 H061         5.0650    -2.1420    -4.9100 ha         1 L5C       0.107000
     43 H071         5.5360    -0.0140    -6.0590 ha         1 L5C       0.146000
     44 H081         3.8280    -0.8850    -0.5750 h1         1 L5C       0.004200
     45 H082         3.8290     0.8840    -0.5740 h1         1 L5C       0.004200
     46 H121        -1.7730     0.0060     1.1950 ha         1 L5C       0.121500
     47 H161        -0.3310     0.5270     4.3950 hn         1 L5C       0.165500
     48 H231        -4.4390    -1.7470     4.5200 h4         1 L5C       0.162000
     49 H241        -5.5170    -2.2620     7.1880 h1         1 L5C       0.025033
     50 H243        -6.3480    -0.8390     6.5440 h1         1 L5C       0.025033
     51 H242        -5.5260    -0.7520     8.1090 h1         1 L5C       0.025033
     52 H271         6.7460     4.5630    -5.7160 h1         1 L5C       0.061200
     53 H272         5.7190     4.1860    -7.1060 h1         1 L5C       0.061200
     54 H321         8.5720     8.8470    -9.3450 ha         1 L5C       0.129000
     55 H353         6.0150     9.0210    -8.5460 hc         1 L5C       0.018700
     56 H352         5.6420     8.0420    -7.1200 hc         1 L5C       0.018700
     57 H351         6.9340     9.2480    -7.0520 hc         1 L5C       0.018700
     58 H363        11.0730     6.2770   -10.5060 hc         1 L5C       0.018700
     59 H362        11.1300     7.9210    -9.8540 hc         1 L5C       0.018700
     60 H361        10.1000     7.5560   -11.2460 hc         1 L5C       0.018700
     61 O09          2.0670     0.0000    -1.1780 os         1 L5C      -0.301900
     62 N01          5.1310     2.4060    -5.0660 ns         1 L5C      -0.026100
@<TRIPOS>BOND
     1     1    15 ar  
     2     1    16 ar  
     3     1    35 1   
     4     2     3 ar  
     5     2    16 ar  
     6     2    17 1   
     7     3     4 ar  
     8     3    36 1   
     9     4    15 ar  
    10     4    37 1   
    11     5     6 1   
    12     5    17 1   
    13     5    18 2   
    14     6     7 1   
    15     6    21 2   
    16     7    19 2   
    17     7    38 1   
    18     8     9 ar  
    19     8    13 ar  
    20     8    62 1   
    21     9    10 ar  
    22     9    40 1   
    23    10    11 ar  
    24    10    14 1   
    25    11    12 ar  
    26    11    41 1   
    27    12    13 ar  
    28    12    42 1   
    29    13    43 1   
    30    14    44 1   
    31    14    45 1   
    32    14    61 1   
    33    15    61 1   
    34    16    46 1   
    35    17    47 1   
    36    19    20 1   
    37    20    21 1   
    38    20    22 1   
    39    21    48 1   
    40    22    49 1   
    41    22    50 1   
    42    22    51 1   
    43    23    24 2   
    44    23    25 1   
    45    23    62 1   
    46    25    26 1   
    47    25    52 1   
    48    25    53 1   
    49    26    27 1   
    50    27    28 ar  
    51    27    32 ar  
    52    28    29 ar  
    53    29    30 ar  
    54    29    34 1   
    55    30    31 ar  
    56    30    54 1   
    57    31    32 ar  
    58    31    33 1   
    59    33    55 1   
    60    33    56 1   
    61    33    57 1   
    62    34    58 1   
    63    34    59 1   
    64    34    60 1   
    65    39    62 1   
@<TRIPOS>SUBSTRUCTURE
     1 L5C         1 TEMP              0 ****  ****    0 ROOT
