@<TRIPOS>MOLECULE
molecule
   27    28     1     0     0
SMALL
bcc


@<TRIPOS>ATOM
      1 C            0.0000     0.0000     0.0000 c          1 L5D       0.883200
      2 O            1.3470     0.0000     0.0000 o          1 L5D      -0.836800
      3 C1          -0.7390     0.0000     1.2790 ca         1 L5D      -0.106600
      4 C10         -4.9960     0.0110     3.7110 ca         1 L5D      -0.135000
      5 C11         -2.1150     0.0010     3.6920 ca         1 L5D      -0.137000
      6 C12         -0.7330    -0.0000     3.6860 ca         1 L5D      -0.167000
      7 C13         -0.0430    -0.0000     2.4900 ca         1 L5D      -0.084000
      8 C2          -2.1330     0.0050     1.2810 ca         1 L5D      -0.087000
      9 C3          -2.8210     0.0060     2.4900 cp         1 L5D      -0.087000
     10 C4          -4.3050     0.0120     2.5000 cp         1 L5D       0.004000
     11 C5          -5.0130     0.0160     1.3010 ca         1 L5D      -0.128000
     12 C6          -6.3930     0.0210     1.3160 ca         1 L5D      -0.128000
     13 C7          -7.0730     0.0220     2.5200 ca         1 L5D      -0.151000
     14 C8          -6.3750     0.0120     3.7150 ca         1 L5D      -0.091300
     15 C9          -7.1240     0.0130     5.0230 c3         1 L5D      -0.042800
     16 O1          -0.6070     0.0050    -1.0520 o          1 L5D      -0.836800
     17 H8          -2.6500     0.0010     4.6340 ha         1 L5D       0.105000
     18 H9          -0.1890    -0.0020     4.6230 ha         1 L5D       0.106000
     19 H10          1.0410    -0.0010     2.4900 ha         1 L5D       0.154000
     20 H           -2.6780     0.0090     0.3450 ha         1 L5D       0.148000
     21 H1          -4.4810     0.0150     0.3570 ha         1 L5D       0.150000
     22 H2          -6.9440     0.0260     0.3840 ha         1 L5D       0.120000
     23 H3          -8.1560     0.0240     2.5280 ha         1 L5D       0.114000
     24 H6          -7.0610     0.9950     5.4750 hc         1 L5D       0.034700
     25 H4          -8.1630    -0.2370     4.8450 hc         1 L5D       0.034700
     26 H5          -6.6860    -0.7200     5.6900 hc         1 L5D       0.034700
     27 H7          -4.4500     0.0040     4.6470 ha         1 L5D       0.131000
@<TRIPOS>BOND
     1    13    12 ar
     2    13    14 ar
     3    12    11 ar
     4    15    14 1
     5    14     4 ar
     6    11    10 ar
     7     4    10 ar
     8    16     1 1
     9    10     9 1
    10     8     9 ar
    11     8     3 ar
    12     9     5 ar
    13     1     3 1
    14     1     2 1
    15     3     7 ar
    16     5     6 ar
    17     7     6 ar
    18     4    27 1
    19     5    17 1
    20     6    18 1
    21     7    19 1
    22     8    20 1
    23    11    21 1
    24    12    22 1
    25    13    23 1
    26    15    24 1
    27    15    25 1
    28    15    26 1
@<TRIPOS>SUBSTRUCTURE
     1 L5D         1 TEMP              0 ****  ****    0 ROOT
