@<TRIPOS>MOLECULE
L5G
   46    45     1     0     0
SMALL
bcc


@<TRIPOS>ATOM
      1 N1         -0.6210    0.6970   -0.2300 n2        1 L5G     -0.024000
      2 N3         -2.1520    3.3840    1.5800 n2        1 L5G     -0.071000
      3 C4          1.0300   -1.0780   -0.1710 c2        1 L5G     -0.062000
      4 C5          1.2000   -1.0370   -1.6170 c2        1 L5G     -0.122000
      5 C6          0.9920   -2.0560   -2.4650 c2        1 L5G     -0.068000
      6 C7          0.2270   -0.0160    0.4630 c2        1 L5G     -0.056000
      7 C8          0.3730    3.1380    3.3230 c1        1 L5G      0.285000
      8 C10        -1.0630    2.5760    1.4010 c2        1 L5G     -0.023000
      9 C13        -4.0310   -0.8310    0.0100 c2        1 L5G      0.262000
     10 C15        -1.8330   -3.8550    0.0890 c1        1 L5G      0.146000
     11 C17        -4.2590   -3.2890   -0.5070 c2        1 L5G      0.169000
     12 C20        -3.5240   -5.5730   -2.4220 c1        1 L5G     -0.219000
     13 C21        -2.4530   -5.7440   -2.9330 c1        1 L5G     -0.103000
     14 C22        -5.6820   -7.2930   -2.9110 c1        1 L5G     -0.007000
     15 C19        -4.7740   -5.3570   -1.8240 c2        1 L5G      0.048000
     16 C18        -5.1360   -4.3700   -0.9830 c2        1 L5G     -0.137000
     17 C16        -4.7700   -2.0330   -0.4090 c2        1 L5G     -0.243000
     18 N5         -2.9530   -3.6020   -0.1970 n2        1 L5G     -0.288000
     19 C14        -4.5530    0.4570   -0.5720 c3        1 L5G     -0.204000
     20 O1         -3.0770   -0.8640    0.7950 o         1 L5G     -0.285000
     21 C11        -2.6810    2.0170   -0.0610 c2        1 L5G     -0.029000
     22 N2         -1.3540    1.6670    0.3350 na        1 L5G     -0.109000
     23 N4         -3.0970    3.0510    0.7280 n2        1 L5G     -0.089000
     24 C9          0.1930    2.6450    2.1080 c2        1 L5G     -0.434000
     25 C3          1.5920   -2.0190    0.6050 c2        1 L5G     -0.163000
     26 C2          0.3500   -4.4360   -2.8320 c1        1 L5G      0.165000
     27 C1          0.5160   -3.3660   -2.0900 c2        1 L5G     -0.447000
     28 H5          1.5170   -0.0570   -2.0160 ha        1 L5G      0.142000
     29 H6          1.1690   -1.9040   -3.5450 ha        1 L5G      0.131000
     30 H8          0.3940    0.0920    1.5590 h4        1 L5G      0.141000
     31 H15        -5.2820    0.2350   -1.3970 hc        1 L5G      0.118500
     32 H20        -1.4880   -5.8750   -3.3740 ha        1 L5G      0.258000
     33 H21        -5.8280   -1.8710   -0.6770 ha        1 L5G      0.157000
     34 H22        -2.7550   -8.4450   -4.6780 ha        1 L5G      0.000500
     35 H22A       -2.6200   -7.8760   -4.3360 ha        1 L5G      0.000500
     36 H22B       -4.7120   -7.5470   -3.3880 ha        1 L5G      0.056000
     37 H18        -6.1770   -4.3220   -0.6150 ha        1 L5G      0.170000
     38 H14        -5.1120    1.0000    0.2390 hc        1 L5G      0.118500
     39 H12        -2.7850    0.7470   -1.8030 hc        1 L5G      0.117500
     40 H12A       -3.9380    2.1460   -1.7650 hc        1 L5G      0.117500
     41 H9          1.0930    2.2900    1.5610 ha        1 L5G      0.196000
     42 H3          1.4730   -2.0350    1.6970 ha        1 L5G      0.130000
     43 H2          2.2010   -2.8290    0.1820 ha        1 L5G      0.130000
     44 H1          0.2130   -3.4830   -1.0130 ha        1 L5G      0.227000
     45 C12        -3.4590    1.3450   -1.1350 c3        1 L5G     -0.072000
     46 O2         -5.8260   -6.2840   -2.1550 os        1 L5G     -0.028000
@<TRIPOS>BOND
     1    1    6 1   
     2    1   22 1   
     3    2    8 1   
     4    2   23 1   
     5    3    4 1   
     6    3    6 1   
     7    3   25 1   
     8    4    5 1   
     9    4   28 1   
    10    5   27 1   
    11    5   29 1   
    12    6   30 1   
    13    7   24 1   
    14    8   22 1   
    15    8   24 1   
    16    9   17 1   
    17    9   19 1   
    18    9   20 1   
    19   10   18 1   
    20   11   16 1   
    21   11   17 1   
    22   11   18 1   
    23   12   13 1   
    24   12   15 1   
    25   13   32 1   
    26   14   36 1   
    27   14   46 1   
    28   15   16 1   
    29   15   46 1   
    30   16   37 1   
    31   17   33 1   
    32   19   31 1   
    33   19   38 1   
    34   19   45 1   
    35   21   22 1   
    36   21   23 1   
    37   21   45 1   
    38   24   41 1   
    39   25   42 1   
    40   25   43 1   
    41   26   27 1   
    42   27   44 1   
    43   34   35 1   
    44   39   45 1   
    45   40   45 1   
@<TRIPOS>SUBSTRUCTURE
     1 L5G         1 TEMP              0 ****  ****    0 ROOT
