@<TRIPOS>MOLECULE
molecule
   46    50     1     0     0
SMALL
bcc


@<TRIPOS>ATOM
      1 N1           0.0000     0.0000     0.0000 nc         1 L5G      -0.480800
      2 N3          -0.9460     0.0030     3.3580 nd         1 L5G      -0.063000
      3 C4           2.0470    -0.0020    -1.2910 ca         1 L5G      -0.161500
      4 C5           1.3440    -0.0020    -2.4940 ca         1 L5G      -0.091000
      5 C6           2.0310    -0.0020    -3.6900 ca         1 L5G      -0.132500
      6 C7           1.3150     0.0000     0.0000 cd         1 L5G       0.484800
      7 C8           2.0370     0.0000     1.2120 cd         1 L5G      -0.254300
      8 C10         -0.0320     0.0020     2.4010 cc         1 L5G      -0.126300
      9 C13         -4.5580    -1.5220    -0.6370 ca         1 L5G       0.205100
     10 C15         -6.2660    -0.6510    -2.0770 ca         1 L5G       0.479200
     11 C17         -6.0650    -2.9500    -1.9110 ca         1 L5G       0.484600
     12 C20         -4.8030    -5.1970    -0.8520 ca         1 L5G      -0.221000
     13 C21         -4.3670    -3.9630    -0.4800 ca         1 L5G      -0.047000
     14 C22         -5.5920    -7.6890    -1.5200 c3         1 L5G       0.127700
     15 C19         -5.8670    -5.3400    -1.7480 ca         1 L5G       0.159100
     16 C18         -6.4960    -4.2360    -2.2760 ca         1 L5G      -0.226300
     17 C16         -4.9870    -2.8170    -1.0020 ca         1 L5G      -0.206300
     18 N5          -6.6580    -1.8590    -2.4090 nb         1 L5G      -0.717000
     19 C14         -5.2170    -0.4380    -1.1920 ca         1 L5G      -0.384300
     20 O1          -3.5330    -1.3440     0.2330 os         1 L5G      -0.315900
     21 C11         -2.0220     0.0020     1.5190 cc         1 L5G       0.334800
     22 N2          -0.7080     0.0010     1.2040 na         1 L5G       0.101300
     23 N4          -2.1180     0.0040     2.8240 nd         1 L5G      -0.334700
     24 C9           1.3760     0.0010     2.3990 cc         1 L5G      -0.021000
     25 C3           3.4400    -0.0080    -1.3030 ca         1 L5G      -0.091000
     26 C2           4.1170    -0.0140    -2.5060 ca         1 L5G      -0.132500
     27 C1           3.4150    -0.0050    -3.6980 ca         1 L5G      -0.103000
     28 H5           0.2610     0.0000    -2.4900 ha         1 L5G       0.144000
     29 H6           1.4860     0.0010    -4.6260 ha         1 L5G       0.139000
     30 H8           3.1210    -0.0000     1.1960 ha         1 L5G       0.157000
     31 H15         -6.7750     0.2040    -2.5060 h4         1 L5G       0.022100
     32 H20         -4.3210    -6.0790    -0.4480 ha         1 L5G       0.138000
     33 H21         -3.5420    -3.8650     0.2150 ha         1 L5G       0.149000
     34 H22         -5.6840    -7.6470    -0.4410 h1         1 L5G       0.042700
     35 H22A        -6.0420    -8.6050    -1.8850 h1         1 L5G       0.042700
     36 H22B        -4.5440    -7.6690    -1.7930 h1         1 L5G       0.042700
     37 H18         -7.3190    -4.3580    -2.9690 ha         1 L5G       0.165000
     38 H14         -4.9170     0.5710    -0.9370 ha         1 L5G       0.139000
     39 H12         -4.0170     0.5140     0.9810 h1         1 L5G       0.067700
     40 H12A        -2.8700     0.5140    -0.3660 h1         1 L5G       0.067700
     41 H9           1.9250     0.0010     3.3330 ha         1 L5G       0.170000
     42 H3           3.9910    -0.0110    -0.3700 ha         1 L5G       0.144000
     43 H2           5.2010    -0.0180    -2.5160 ha         1 L5G       0.139000
     44 H1           3.9490    -0.0080    -4.6400 ha         1 L5G       0.136000
     45 C12         -3.1690     0.0030     0.5420 c3         1 L5G       0.154100
     46 O2          -6.2840    -6.5840    -2.1010 os         1 L5G      -0.323900
@<TRIPOS>BOND
     1     1     6 2
     2     1    22 1
     3     2     8 2
     4     2    23 1
     5     3     4 ar
     6     3     6 1
     7     3    25 ar
     8     4     5 ar
     9     5    27 ar
    10     6     7 1
    11     7    24 2
    12     8    22 1
    13     8    24 1
    14     9    17 ar
    15     9    19 ar
    16     9    20 1
    17    10    18 ar
    18    10    19 ar
    19    11    16 ar
    20    11    17 ar
    21    11    18 ar
    22    12    13 ar
    23    12    15 ar
    24    13    17 ar
    25    14    46 1
    26    46    15 1
    27    15    16 ar
    28    20    45 1
    29    45    21 1
    30    21    22 1
    31    21    23 2
    32    25    26 ar
    33    26    27 ar
    34     4    28 1
    35     5    29 1
    36     7    30 1
    37    10    31 1
    38    12    32 1
    39    13    33 1
    40    14    34 1
    41    14    35 1
    42    14    36 1
    43    16    37 1
    44    19    38 1
    45    45    39 1
    46    45    40 1
    47    24    41 1
    48    25    42 1
    49    26    43 1
    50    27    44 1
@<TRIPOS>SUBSTRUCTURE
     1 L5G         1 TEMP              0 ****  ****    0 ROOT
