@<TRIPOS>MOLECULE
L5S
   32    35     1     0     0
SMALL
bcc


@<TRIPOS>ATOM
      1 CAS          0.0000     0.0000     0.0000 cc         1 L5S      -0.166900
      2 CAJ          1.4530     0.0000     0.0000 cc         1 L5S      -0.096000
      3 CAP          1.9900     0.0000     1.2080 cd         1 L5S       0.012900
      4 CAU         -0.5110    -0.0330     1.2810 cd         1 L5S      -0.104300
      5 NAV         -1.8740    -0.0910     1.5780 na         1 L5S       0.322200
      6 CAR         -2.5410     0.4500     2.6260 cc         1 L5S       0.163800
      7 CAA         -1.9510     1.2790     3.7360 c3         1 L5S       0.004600
      8 NAM         -3.7990     0.1130     2.4860 nd         1 L5S      -0.321000
      9 NAN         -3.9490    -0.5950     1.4210 nd         1 L5S      -0.295000
     10 CAT         -2.8000    -0.7420     0.8260 cc         1 L5S       0.127800
     11 CAK         -2.5100    -1.4750    -0.4580 c3         1 L5S       0.162500
     12 NAL         -1.9400    -0.5370    -1.4280 n2         1 L5S      -0.507900
     13 CAO         -0.8140     0.0680    -1.2290 ce         1 L5S       0.505500
     14 CAQ         -0.2950     0.9060    -2.3360 ca         1 L5S      -0.151900
     15 CAF         -0.7060     0.6660    -3.6470 ca         1 L5S      -0.074000
     16 CAD         -0.2200     1.4500    -4.6730 ca         1 L5S      -0.108000
     17 CAC          0.6730     2.4720    -4.4040 ca         1 L5S      -0.085000
     18 CAE          1.0840     2.7140    -3.1050 ca         1 L5S      -0.108000
     19 CAG          0.6010     1.9400    -2.0690 ca         1 L5S      -0.074000
     20 S            0.7420    -0.0070     2.4390 ss         1 L5S      -0.193800
     21 HAJ          2.0430     0.0040    -0.9080 ha         1 L5S       0.142000
     22 HAP          3.0540     0.0040     1.4090 h4         1 L5S       0.158000
     23 HAA1        -1.4140     2.1200     3.3130 hc         1 L5S       0.021700
     24 HAA2        -2.7450     1.6430     4.3770 hc         1 L5S       0.021700
     25 HAA3        -1.2680     0.6710     4.3170 hc         1 L5S       0.021700
     26 HAK1        -1.8020    -2.2720    -0.2660 h1         1 L5S       0.037200
     27 HAK2        -3.4300    -1.8880    -0.8530 h1         1 L5S       0.037200
     28 HAF         -1.4050    -0.1340    -3.8590 ha         1 L5S       0.117500
     29 HAG          0.9230     2.1310    -1.0530 ha         1 L5S       0.117500
     30 HAD         -0.5380     1.2650    -5.6920 ha         1 L5S       0.105500
     31 HAC          1.0530     3.0830    -5.2130 ha         1 L5S       0.103000
     32 HAE          1.7820     3.5170    -2.8990 ha         1 L5S       0.105500
@<TRIPOS>BOND
     1     1     2 1   
     2     1     4 2   
     3     1    13 1   
     4     2     3 2   
     5     2    21 1   
     6     3    20 1   
     7     3    22 1   
     8     4     5 1   
     9     4    20 1   
    10     5     6 1   
    11     5    10 1   
    12     6     7 1   
    13     6     8 2   
    14     7    23 1   
    15     7    24 1   
    16     7    25 1   
    17     8     9 1   
    18     9    10 2   
    19    10    11 1   
    20    11    12 1   
    21    11    26 1   
    22    11    27 1   
    23    12    13 2   
    24    13    14 1   
    25    14    15 ar  
    26    14    19 ar  
    27    15    16 ar  
    28    15    28 1   
    29    16    17 ar  
    30    16    30 1   
    31    17    18 ar  
    32    17    31 1   
    33    18    19 ar  
    34    18    32 1   
    35    19    29 1   
@<TRIPOS>SUBSTRUCTURE
     1 L5S         1 TEMP              0 ****  ****    0 ROOT
