@<TRIPOS>MOLECULE
molecule
   32    35     1     0     0
SMALL
bcc


@<TRIPOS>ATOM
      1 CAS          0.0000     0.0000     0.0000 cc         1 L5S      -0.220900
      2 CAJ          1.4530     0.0000     0.0000 cc         1 L5S      -0.116000
      3 CAP          1.9900     0.0000     1.2080 cd         1 L5S      -0.089100
      4 CAU         -0.5110    -0.0330     1.2810 cd         1 L5S       0.031700
      5 NAV         -1.8740    -0.0910     1.5780 na         1 L5S      -0.218800
      6 CAR         -2.5410     0.4500     2.6260 cc         1 L5S       0.366800
      7 CAA         -1.9510     1.2790     3.7360 c3         1 L5S      -0.109400
      8 NAM         -3.7990     0.1130     2.4860 nd         1 L5S      -0.343000
      9 NAN         -3.9490    -0.5950     1.4210 nd         1 L5S      -0.333000
     10 CAT         -2.8000    -0.7420     0.8260 cc         1 L5S       0.350800
     11 CAK         -2.5100    -1.4750    -0.4580 c3         1 L5S       0.107500
     12 NAL         -1.9400    -0.5370    -1.4280 n2         1 L5S      -0.592900
     13 CAO         -0.8140     0.0680    -1.2290 ce         1 L5S       0.552500
     14 CAQ         -0.2950     0.9060    -2.3360 ca         1 L5S      -0.141900
     15 CAF         -0.7060     0.6660    -3.6470 ca         1 L5S      -0.094000
     16 CAD         -0.2200     1.4500    -4.6730 ca         1 L5S      -0.138000
     17 CAC          0.6730     2.4720    -4.4040 ca         1 L5S      -0.112000
     18 CAE          1.0840     2.7140    -3.1050 ca         1 L5S      -0.138000
     19 CAG          0.6010     1.9400    -2.0690 ca         1 L5S      -0.094000
     20 S            0.7420    -0.0070     2.4390 ss         1 L5S      -0.063800
     21 HAJ          2.0430     0.0040    -0.9080 ha         1 L5S       0.170000
     22 HAP          3.0540     0.0040     1.4090 h4         1 L5S       0.182000
     23 HAA1        -1.4140     2.1200     3.3130 hc         1 L5S       0.062033
     24 HAA2        -2.7450     1.6430     4.3770 hc         1 L5S       0.062033
     25 HAA3        -1.2680     0.6710     4.3170 hc         1 L5S       0.062033
     26 HAK1        -1.8020    -2.2720    -0.2660 h1         1 L5S       0.082700
     27 HAK2        -3.4300    -1.8880    -0.8530 h1         1 L5S       0.082700
     28 HAF         -1.4050    -0.1340    -3.8590 ha         1 L5S       0.145000
     29 HAG          0.9230     2.1310    -1.0530 ha         1 L5S       0.145000
     30 HAD         -0.5380     1.2650    -5.6920 ha         1 L5S       0.133500
     31 HAC          1.0530     3.0830    -5.2130 ha         1 L5S       0.131000
     32 HAE          1.7820     3.5170    -2.8990 ha         1 L5S       0.133500
@<TRIPOS>BOND
     1     1     2 1
     2     1     4 2
     3     1    13 1
     4     2     3 2
     5     3    20 1
     6     4     5 1
     7     4    20 1
     8     5     6 1
     9     5    10 1
    10     6     7 1
    11     6     8 2
    12     8     9 1
    13     9    10 2
    14    10    11 1
    15    11    12 1
    16    12    13 2
    17    13    14 1
    18    14    15 ar
    19    14    19 ar
    20    15    16 ar
    21    16    17 ar
    22    17    18 ar
    23    18    19 ar
    24     2    21 1
    25     3    22 1
    26     7    23 1
    27     7    24 1
    28     7    25 1
    29    11    26 1
    30    11    27 1
    31    15    28 1
    32    19    29 1
    33    16    30 1
    34    17    31 1
    35    18    32 1
@<TRIPOS>SUBSTRUCTURE
     1 L5S         1 TEMP              0 ****  ****    0 ROOT
