@<TRIPOS>MOLECULE
molecule
   16    17     1     0     0
SMALL
bcc


@<TRIPOS>ATOM
      1 Cl1          0.0000     0.0000     0.0000 cl         1 L5V      -0.141000
      2 C2           1.7360     0.0000     0.0000 ca         1 L5V       0.393000
      3 C3           2.4290     0.0000     1.2000 ca         1 L5V       0.316900
      4 N4           3.7500    -0.0010     1.2050 nb         1 L5V      -0.641000
      5 C5           4.4170    -0.0020     0.0660 ca         1 L5V       0.332900
      6 C6           3.7250    -0.0020    -1.1440 ca         1 L5V       0.307000
      7 N7           2.3950    -0.0070    -1.1450 nb         1 L5V      -0.629000
      8 C8           4.4710    -0.0030    -2.4270 cc         1 L5V       0.515000
      9 N9           3.9310    -0.0040    -3.6260 nd         1 L5V      -0.485800
     10 N10          4.9920    -0.0050    -4.5460 na         1 L5V      -0.178400
     11 C11          6.1260    -0.0050    -3.8210 cd         1 L5V       0.453400
     12 N12          5.8040     0.0020    -2.5560 nc         1 L5V      -0.758000
     13 H3           1.8850     0.0010     2.1370 h4         1 L5V       0.044100
     14 H5           5.5000    -0.0000     0.0710 h4         1 L5V       0.060100
     15 H10          4.9190    -0.0070    -5.5450 hn         1 L5V       0.335700
     16 H11          7.1340    -0.0050    -4.2190 h5         1 L5V       0.074100
@<TRIPOS>BOND
     1     1     2 1
     2     2     3 ar
     3     2     7 ar
     4     3     4 ar
     5     4     5 ar
     6     5     6 ar
     7     6     7 ar
     8     6     8 1
     9     8     9 2
    10     8    12 1
    11     9    10 1
    12    10    11 1
    13    11    12 2
    14     3    13 1
    15     5    14 1
    16    10    15 1
    17    11    16 1
@<TRIPOS>SUBSTRUCTURE
     1 L5V         1 TEMP              0 ****  ****    0 ROOT
