@<TRIPOS>MOLECULE
L5V
   16    17     1     0     0
SMALL
bcc


@<TRIPOS>ATOM
      1 CL1         0.0150   -0.0020   -0.0020 cl        1 L5V     -0.129000
      2 C2          1.7190   -0.0020   -0.0330 ca        1 L5V      0.369000
      3 C3          2.4240    0.0000    1.2060 ca        1 L5V      0.298900
      4 N4          3.7680    0.0010    1.2440 nb        1 L5V     -0.625000
      5 C5          4.4150   -0.0010    0.0640 ca        1 L5V      0.313900
      6 C6          3.7130   -0.0020   -1.1800 ca        1 L5V      0.292000
      7 N7          2.3550   -0.0030   -1.2260 nb        1 L5V     -0.600000
      8 C8          4.4700   -0.0030   -2.4370 cc        1 L5V      0.446000
      9 N9          3.9180   -0.0060   -3.6990 nd        1 L5V     -0.457800
     10 N10         4.9610   -0.0060   -4.5220 na        1 L5V     -0.159400
     11 C11         6.1680   -0.0030   -3.7970 cd        1 L5V      0.405400
     12 N12         5.8880   -0.0010   -2.4800 nc        1 L5V     -0.672000
     13 H3          1.8910    0.0010    2.1730 h4        1 L5V      0.048100
     14 H5          5.5190   -0.0000    0.1080 h4        1 L5V      0.060100
     15 H10         4.8300   -0.0080   -5.5070 hn        1 L5V      0.332700
     16 H11         7.1600   -0.0020   -4.2610 h5        1 L5V      0.077100
@<TRIPOS>BOND
     1    1    2 1   
     2    2    3 ar  
     3    2    7 ar  
     4    3    4 ar  
     5    3   13 1   
     6    4    5 ar  
     7    5    6 ar  
     8    5   14 1   
     9    6    7 ar  
    10    6    8 1   
    11    8    9 2   
    12    8   12 1   
    13    9   10 1   
    14   10   11 1   
    15   10   15 1   
    16   11   12 2   
    17   11   16 1   
@<TRIPOS>SUBSTRUCTURE
     1 L5V         1 TEMP              0 ****  ****    0 ROOT
