@<TRIPOS>MOLECULE
molecule
   35    37     1     0     0
SMALL
bcc


@<TRIPOS>ATOM
      1 O1           0.0000     0.0000     0.0000 oh         1 L5Y      -0.607800
      2 C2           1.4290     0.0000     0.0000 c3         1 L5Y       0.124400
      3 C3           1.9380     0.0000     1.4430 c3         1 L5Y       0.234800
      4 N4           1.5510    -1.2520     2.0970 nu         1 L5Y      -0.804600
      5 C5           1.9050    -1.4830     3.4240 ca         1 L5Y       0.230600
      6 C6           1.5470    -2.6670     4.0620 ca         1 L5Y      -0.281300
      7 C7           1.9210    -2.8570     5.3890 ca         1 L5Y       0.474000
      8 N8           2.6110    -1.9260     6.0380 nb         1 L5Y      -0.692000
      9 C9           2.9640    -0.7940     5.4590 ca         1 L5Y       0.380600
     10 C10          2.6350    -0.5360     4.1450 ca         1 L5Y      -0.288300
     11 C11          3.7460     0.2280     6.2430 c3         1 L5Y       0.585600
     12 F12          4.0650    -0.2940     7.5010 f          1 L5Y      -0.215967
     13 F13          4.9220     0.5440     5.5570 f          1 L5Y      -0.215967
     14 F14          2.9730     1.3840     6.4010 f          1 L5Y      -0.215967
     15 C15          1.5480    -4.1110     6.0840 cc         1 L5Y       0.312900
     16 N16          0.5350    -4.8910     5.7870 nd         1 L5Y      -0.482100
     17 N17          0.4990    -5.9830     6.6620 na         1 L5Y      -0.041100
     18 C18          1.5370    -5.8840     7.5510 ca         1 L5Y      -0.153500
     19 C19          1.9870    -6.6570     8.6160 ca         1 L5Y       0.399200
     20 N20          3.0490    -6.2880     9.2990 nb         1 L5Y      -0.653000
     21 C21          3.7300    -5.1880     9.0190 ca         1 L5Y       0.366200
     22 C22          3.3610    -4.3660     7.9910 ca         1 L5Y      -0.158300
     23 C23          2.2440    -4.7100     7.2230 ca         1 L5Y      -0.194900
     24 HO1         -0.3140     0.2070    -0.8640 ho         1 L5Y       0.409000
     25 H2           1.7900     0.8850    -0.5100 h1         1 L5Y       0.033700
     26 H2A          1.7900    -0.8850    -0.5110 h1         1 L5Y       0.033700
     27 H3           1.5050     0.8360     1.9790 h1         1 L5Y       0.053700
     28 H3A          3.0180     0.0900     1.4450 h1         1 L5Y       0.053700
     29 HN4          1.0490    -1.9500     1.5850 hn         1 L5Y       0.455800
     30 H6           0.9850    -3.4280     3.5340 ha         1 L5Y       0.158000
     31 H10          2.9300     0.3970     3.6800 ha         1 L5Y       0.151000
     32 HN17        -0.1790    -6.7190     6.6420 hn         1 L5Y       0.336700
     33 H19          1.4630    -7.5660     8.8830 h4         1 L5Y       0.021100
     34 H21          4.5970    -4.9340     9.6170 h4         1 L5Y       0.028100
     35 H22          3.9270    -3.4690     7.7720 ha         1 L5Y       0.162000
@<TRIPOS>BOND
     1     1     2 1
     2     1    24 1
     3     2     3 1
     4     2    25 1
     5     2    26 1
     6     3     4 1
     7     3    27 1
     8     3    28 1
     9     4     5 1
    10     4    29 1
    11     5     6 ar
    12     5    10 ar
    13     6     7 ar
    14     6    30 1
    15     7     8 ar
    16     7    15 1
    17     8     9 ar
    18     9    10 ar
    19     9    11 1
    20    10    31 1
    21    11    12 1
    22    11    13 1
    23    11    14 1
    24    15    16 2
    25    15    23 1
    26    16    17 1
    27    17    18 1
    28    17    32 1
    29    18    19 ar
    30    18    23 ar
    31    19    20 ar
    32    19    33 1
    33    20    21 ar
    34    21    22 ar
    35    21    34 1
    36    22    23 ar
    37    22    35 1
@<TRIPOS>SUBSTRUCTURE
     1 L5Y         1 TEMP              0 ****  ****    0 ROOT
