@<TRIPOS>MOLECULE
L5Z
   45    48     1     0     0
SMALL
bcc


@<TRIPOS>ATOM
      1 N01          0.0000     0.0000     0.0000 nc         1 L5Z      -0.613000
      2 C02          1.3040     0.0000     0.0000 cd         1 L5Z       0.238400
      3 N03          1.7370     0.0000     1.2890 na         1 L5Z       0.288300
      4 C04          0.6200    -0.0010     2.0880 cd         1 L5Z      -0.414600
      5 C05         -0.4460    -0.0010     1.2650 cc         1 L5Z       0.327200
      6 C1'          7.6810    -2.4350    -6.5880 ca         1 L5Z      -0.062300
      7 N11          4.0330     0.0000     0.8190 nb         1 L5Z      -0.631000
      8 C12          3.0640    -0.0010     1.7190 ca         1 L5Z       0.540500
      9 N13          3.3210    -0.0010     3.0170 nb         1 L5Z      -0.633000
     10 C14          4.5680    -0.0010     3.4590 ca         1 L5Z       0.471200
     11 C15          5.6100    -0.0010     2.5440 ca         1 L5Z      -0.352600
     12 C16          5.3030     0.0000     1.1920 ca         1 L5Z       0.440600
     13 C17          6.4010    -0.0000     0.1610 c3         1 L5Z      -0.075700
     14 C18          6.2070    -1.1810    -0.7920 c3         1 L5Z       0.142800
     15 N19          7.2770    -1.1820    -1.7970 n7         1 L5Z      -0.539200
     16 C2'          8.6830    -3.2470    -7.0840 ca         1 L5Z      -0.128000
     17 C21          7.1220    -2.3050    -2.7310 cx         1 L5Z       0.040500
     18 C22          8.3800    -3.0940    -3.1020 cx         1 L5Z      -0.065400
     19 C23          7.7360    -2.1550    -4.1240 cx         1 L5Z      -0.120700
     20 C24          6.9900    -2.7940    -5.2970 c3         1 L5Z       0.068900
     21 C3'          9.3180    -2.9160    -8.2700 ca         1 L5Z       0.106900
     22 C4'          8.9470    -1.7730    -8.9560 ca         1 L5Z      -0.137000
     23 C5'          7.9440    -0.9620    -8.4580 ca         1 L5Z      -0.072000
     24 C6'          7.3160    -1.2900    -7.2720 ca         1 L5Z      -0.112000
     25 F7'         10.2980    -3.7090    -8.7550 f          1 L5Z      -0.128900
     26 H02          1.9370     0.0010    -0.8790 h5         1 L5Z       0.035100
     27 H04          0.6000    -0.0010     3.1710 h4         1 L5Z       0.166000
     28 H05         -1.4840    -0.0010     1.5730 h4         1 L5Z       0.004100
     29 H14          4.7730    -0.0010     4.5230 h4         1 L5Z      -0.008900
     30 H15          6.6400    -0.0010     2.8780 ha         1 L5Z       0.134000
     31 H17          6.3690     0.9260    -0.4010 hc         1 L5Z       0.033700
     32 H17A         7.3600    -0.0890     0.6550 hc         1 L5Z       0.033700
     33 H18          6.2380    -2.1070    -0.2310 h1         1 L5Z       0.017700
     34 H18A         5.2470    -1.0920    -1.2870 h1         1 L5Z       0.017700
     35 HN19         7.2570    -0.3200    -2.3060 hn         1 L5Z       0.254800
     36 H2'          8.9720    -4.1410    -6.5450 ha         1 L5Z       0.122000
     37 H21          6.2120    -2.8920    -2.6970 h1         1 L5Z       0.060700
     38 H22          8.2320    -4.1520    -3.2800 hc         1 L5Z       0.050200
     39 H22A         9.3020    -2.7400    -2.6580 hc         1 L5Z       0.050200
     40 H23          8.2710    -1.2270    -4.2870 hc         1 L5Z       0.068700
     41 H24          5.9710    -2.4270    -5.3190 hc         1 L5Z       0.022700
     42 H24A         6.9840    -3.8710    -5.1780 hc         1 L5Z       0.022700
     43 H4'          9.4410    -1.5140    -9.8850 ha         1 L5Z       0.119000
     44 H5'          7.6560    -0.0660    -8.9940 ha         1 L5Z       0.106000
     45 H6'          6.5300    -0.6540    -6.8820 ha         1 L5Z       0.109000
@<TRIPOS>BOND
     1     1     2 2   
     2     1     5 1   
     3     2     3 1   
     4     2    26 1   
     5     3     4 1   
     6     3     8 1   
     7     4     5 2   
     8     4    27 1   
     9     5    28 1   
    10     6    16 ar  
    11     6    20 1   
    12     6    24 ar  
    13     7     8 ar  
    14     7    12 ar  
    15     8     9 ar  
    16     9    10 ar  
    17    10    11 ar  
    18    10    29 1   
    19    11    12 ar  
    20    11    30 1   
    21    12    13 1   
    22    13    14 1   
    23    13    31 1   
    24    13    32 1   
    25    14    15 1   
    26    14    33 1   
    27    14    34 1   
    28    15    17 1   
    29    15    35 1   
    30    16    21 ar  
    31    16    36 1   
    32    17    18 1   
    33    17    19 1   
    34    17    37 1   
    35    18    19 1   
    36    18    38 1   
    37    18    39 1   
    38    19    20 1   
    39    19    40 1   
    40    20    41 1   
    41    20    42 1   
    42    21    22 ar  
    43    21    25 1   
    44    22    23 ar  
    45    22    43 1   
    46    23    24 ar  
    47    23    44 1   
    48    24    45 1   
@<TRIPOS>SUBSTRUCTURE
     1 L5Z         1 TEMP              0 ****  ****    0 ROOT
