@<TRIPOS>MOLECULE
molecule
   15    15     1     0     0
SMALL
bcc


@<TRIPOS>ATOM
      1 O            0.0000     0.0000     0.0000 o          1 L60      -0.703500
      2 C            1.2160     0.0000     0.0000 c          1 L60       0.823500
      3 N1           1.8600     0.0000     1.1770 ns         1 L60      -0.601900
      4 C3           3.3230    -0.0130     1.2440 c3         1 L60       0.094000
      5 C2           3.8890     0.6790    -0.0010 c3         1 L60      -0.128400
      6 C1           3.3210    -0.0130    -1.2450 c3         1 L60       0.094000
      7 N            1.8590    -0.0060    -1.1770 ns         1 L60      -0.601900
      8 H1           1.3300     0.0090     2.0260 hn         1 L60       0.342500
      9 H2           3.6730    -1.0380     1.2780 h1         1 L60       0.049700
     10 H3           3.6480     0.5160     2.1310 h1         1 L60       0.049700
     11 H4           3.4810     1.6830    -0.0000 hc         1 L60       0.071200
     12 H5           4.9530     0.4770    -0.0020 hc         1 L60       0.071200
     13 H6           3.5850     0.6170    -2.0860 h1         1 L60       0.049700
     14 H7           3.6200    -1.0510    -1.1730 h1         1 L60       0.049700
     15 H8           1.3290    -0.0060    -2.0260 hn         1 L60       0.342500
@<TRIPOS>BOND
     1     4     5 1
     2     4     3 1
     3     5     6 1
     4     6     7 1
     5     3     2 1
     6     7     2 1
     7     2     1 2
     8     3     8 1
     9     4     9 1
    10     4    10 1
    11     5    11 1
    12     5    12 1
    13     6    13 1
    14     6    14 1
    15     7    15 1
@<TRIPOS>SUBSTRUCTURE
     1 L60         1 TEMP              0 ****  ****    0 ROOT
