@<TRIPOS>MOLECULE
L60
   15    15     1     0     0
SMALL
bcc


@<TRIPOS>ATOM
      1 O            0.0000     0.0000     0.0000 o          1 L60      -0.749500
      2 C            1.2160     0.0000     0.0000 c          1 L60       0.623500
      3 N1           1.8600     0.0000     1.1770 ns         1 L60      -0.218900
      4 C3           3.3230    -0.0130     1.2440 c3         1 L60       0.036000
      5 C2           3.8890     0.6790    -0.0010 c3         1 L60      -0.066400
      6 C1           3.3210    -0.0130    -1.2450 c3         1 L60       0.036000
      7 N            1.8590    -0.0060    -1.1770 ns         1 L60      -0.218900
      8 H1           1.3300     0.0090     2.0260 hn         1 L60       0.196500
      9 H2           3.6730    -1.0380     1.2780 h1         1 L60       0.021450
     10 H3           3.6480     0.5160     2.1310 h1         1 L60       0.021450
     11 H4           3.4810     1.6830    -0.0000 hc         1 L60       0.040700
     12 H5           4.9530     0.4770    -0.0020 hc         1 L60       0.040700
     13 H6           3.5850     0.6170    -2.0860 h1         1 L60       0.021450
     14 H7           3.6200    -1.0510    -1.1730 h1         1 L60       0.021450
     15 H8           1.3290    -0.0060    -2.0260 hn         1 L60       0.196500
@<TRIPOS>BOND
     1     1     2 2   
     2     2     3 1   
     3     2     7 1   
     4     3     4 1   
     5     3     8 1   
     6     4     5 1   
     7     4     9 1   
     8     4    10 1   
     9     5     6 1   
    10     5    11 1   
    11     5    12 1   
    12     6     7 1   
    13     6    13 1   
    14     6    14 1   
    15     7    15 1   
@<TRIPOS>SUBSTRUCTURE
     1 L60         1 TEMP              0 ****  ****    0 ROOT
