@<TRIPOS>MOLECULE
L61
   37    37     1     0     0
SMALL
bcc


@<TRIPOS>ATOM
      1 O1           0.0000     0.0000     0.0000 o          1 L61      -0.554100
      2 C2           1.2080     0.0000     0.0000 c          1 L61       0.654900
      3 C3           1.9620     0.0000     1.3040 c3         1 L61      -0.177400
      4 C4           2.9330    -1.1820     1.3320 c3         1 L61       0.105000
      5 N1           3.9520    -1.0020     0.2960 ns         1 L61      -0.184900
      6 C5           3.7060    -1.4010    -0.9670 c          1 L61       0.680100
      7 O3           4.6430    -1.2350    -1.9200 os         1 L61      -0.423900
      8 C6           4.3090    -1.6880    -3.2590 c3         1 L61       0.243400
      9 O2           2.6380    -1.9100    -1.2470 o          1 L61      -0.665000
     10 C10          3.5970    -1.2550     2.6840 ca         1 L61      -0.116300
     11 C15          3.1440    -2.1560     3.6290 ca         1 L61      -0.091000
     12 C14          3.7530    -2.2220     4.8680 ca         1 L61      -0.093500
     13 C13          4.8160    -1.3870     5.1610 ca         1 L61      -0.093000
     14 C12          5.2690    -0.4870     4.2150 ca         1 L61      -0.093500
     15 C11          4.6630    -0.4240     2.9750 ca         1 L61      -0.091000
     16 C7           5.4880    -1.4190    -4.1960 c3         1 L61      -0.067700
     17 C8           6.6850    -2.2690    -3.7690 c3         1 L61       0.009400
     18 C9           5.0910    -1.7800    -5.6300 c3         1 L61       0.009400
     19 HC2          1.7480     0.0570    -0.9370 h4         1 L61      -0.017800
     20 H31C         1.2620    -0.0880     2.1260 hc         1 L61       0.043200
     21 H32C         2.5170     0.9250     1.4010 hc         1 L61       0.043200
     22 H4           2.3890    -2.1010     1.1480 h1         1 L61       0.064700
     23 H1           4.8490    -0.6260     0.5360 hn         1 L61       0.186500
     24 H61C         4.0990    -2.7510    -3.2390 h1         1 L61       0.015200
     25 H62C         3.4360    -1.1540    -3.6140 h1         1 L61       0.015200
     26 H7           5.7540    -0.3700    -4.1490 hc         1 L61       0.031700
     27 H15          2.3120    -2.8100     3.4000 ha         1 L61       0.108500
     28 H11          5.0180     0.2820     2.2340 ha         1 L61       0.108500
     29 H14          3.3990    -2.9280     5.6090 ha         1 L61       0.106000
     30 H13          5.2920    -1.4380     6.1330 ha         1 L61       0.105000
     31 H12          6.1030     0.1660     4.4440 ha         1 L61       0.106000
     32 H81C         7.1070    -1.8650    -2.8560 hc         1 L61       0.005367
     33 H82C         7.4350    -2.2550    -4.5500 hc         1 L61       0.005367
     34 H83C         6.3620    -3.2880    -3.5960 hc         1 L61       0.005367
     35 H91C         4.2560    -1.1630    -5.9400 hc         1 L61       0.005367
     36 H92C         5.9320    -1.6090    -6.2910 hc         1 L61       0.005367
     37 H93C         4.8040    -2.8240    -5.6740 hc         1 L61       0.005367
@<TRIPOS>BOND
     1     1     2 2   
     2     2     3 1   
     3     2    19 1   
     4     3     4 1   
     5     3    20 1   
     6     3    21 1   
     7     4     5 1   
     8     4    10 1   
     9     4    22 1   
    10     5     6 1   
    11     5    23 1   
    12     6     7 1   
    13     6     9 2   
    14     7     8 1   
    15     8    16 1   
    16     8    24 1   
    17     8    25 1   
    18    10    11 ar  
    19    10    15 ar  
    20    11    12 ar  
    21    11    27 1   
    22    12    13 ar  
    23    12    29 1   
    24    13    14 ar  
    25    13    30 1   
    26    14    15 ar  
    27    14    31 1   
    28    15    28 1   
    29    16    17 1   
    30    16    18 1   
    31    16    26 1   
    32    17    32 1   
    33    17    33 1   
    34    17    34 1   
    35    18    35 1   
    36    18    36 1   
    37    18    37 1   
@<TRIPOS>SUBSTRUCTURE
     1 L61         1 TEMP              0 ****  ****    0 ROOT
