@<TRIPOS>MOLECULE
molecule
   37    37     1     0     0
SMALL
bcc


@<TRIPOS>ATOM
      1 O1           0.0000     0.0000     0.0000 o          1 L61      -0.525100
      2 C2           1.2080     0.0000     0.0000 c          1 L61       0.581900
      3 C3           1.9620     0.0000     1.3040 c3         1 L61      -0.218400
      4 C4           2.9330    -1.1820     1.3320 c3         1 L61       0.191000
      5 N1           3.9520    -1.0020     0.2960 ns         1 L61      -0.573900
      6 C5           3.7060    -1.4010    -0.9670 c          1 L61       0.746100
      7 O3           4.6430    -1.2350    -1.9200 os         1 L61      -0.440900
      8 C6           4.3090    -1.6880    -3.2590 c3         1 L61       0.170400
      9 O2           2.6380    -1.9100    -1.2470 o          1 L61      -0.618000
     10 C10          3.5970    -1.2550     2.6840 ca         1 L61      -0.104300
     11 C15          3.1440    -2.1560     3.6290 ca         1 L61      -0.118500
     12 C14          3.7530    -2.2220     4.8680 ca         1 L61      -0.122500
     13 C13          4.8160    -1.3870     5.1610 ca         1 L61      -0.121000
     14 C12          5.2690    -0.4870     4.2150 ca         1 L61      -0.122500
     15 C11          4.6630    -0.4240     2.9750 ca         1 L61      -0.118500
     16 C7           5.4880    -1.4190    -4.1960 c3         1 L61      -0.080700
     17 C8           6.6850    -2.2690    -3.7690 c3         1 L61      -0.087100
     18 C9           5.0910    -1.7800    -5.6300 c3         1 L61      -0.087100
     19 HC2          1.7480     0.0570    -0.9370 h4         1 L61       0.012200
     20 H31C         1.2620    -0.0880     2.1260 hc         1 L61       0.074700
     21 H32C         2.5170     0.9250     1.4010 hc         1 L61       0.074700
     22 H4           2.3890    -2.1010     1.1480 h1         1 L61       0.091700
     23 H1           4.8490    -0.6260     0.5360 hn         1 L61       0.328500
     24 H61C         4.0990    -2.7510    -3.2390 h1         1 L61       0.053200
     25 H62C         3.4360    -1.1540    -3.6140 h1         1 L61       0.053200
     26 H7           5.7540    -0.3700    -4.1490 hc         1 L61       0.060700
     27 H15          2.3120    -2.8100     3.4000 ha         1 L61       0.132500
     28 H11          5.0180     0.2820     2.2340 ha         1 L61       0.132500
     29 H14          3.3990    -2.9280     5.6090 ha         1 L61       0.134000
     30 H13          5.2920    -1.4380     6.1330 ha         1 L61       0.133000
     31 H12          6.1030     0.1660     4.4440 ha         1 L61       0.134000
     32 H81C         7.1070    -1.8650    -2.8560 hc         1 L61       0.039033
     33 H82C         7.4350    -2.2550    -4.5500 hc         1 L61       0.039033
     34 H83C         6.3620    -3.2880    -3.5960 hc         1 L61       0.039033
     35 H91C         4.2560    -1.1630    -5.9400 hc         1 L61       0.039033
     36 H92C         5.9320    -1.6090    -6.2910 hc         1 L61       0.039033
     37 H93C         4.8040    -2.8240    -5.6740 hc         1 L61       0.039033
@<TRIPOS>BOND
     1     1     2 2
     2     2     3 1
     3     2    19 1
     4     3     4 1
     5     4     5 1
     6     4    10 1
     7     5     6 1
     8     6     7 1
     9     6     9 2
    10     7     8 1
    11     8    16 1
    12    10    11 ar
    13    10    15 ar
    14    11    12 ar
    15    12    13 ar
    16    13    14 ar
    17    14    15 ar
    18    16    17 1
    19    16    18 1
    20     3    20 1
    21     3    21 1
    22     4    22 1
    23     5    23 1
    24     8    24 1
    25     8    25 1
    26    16    26 1
    27    11    27 1
    28    15    28 1
    29    12    29 1
    30    13    30 1
    31    14    31 1
    32    17    32 1
    33    17    33 1
    34    17    34 1
    35    18    35 1
    36    18    36 1
    37    18    37 1
@<TRIPOS>SUBSTRUCTURE
     1 L61         1 TEMP              0 ****  ****    0 ROOT
