@<TRIPOS>MOLECULE
molecule
   38    39     1     0     0
SMALL
bcc


@<TRIPOS>ATOM
      1 O2           0.0000     0.0000     0.0000 o          1 L62      -0.618000
      2 C5           1.2150     0.0000     0.0000 c          1 L62       0.746100
      3 O3           1.8890     0.0000     1.1660 os         1 L62      -0.435900
      4 C6           1.0980    -0.0000     2.3840 c3         1 L62       0.162100
      5 C7           1.8610    -0.7230     3.5080 c3         1 L62      -0.094400
      6 C8           2.0700     0.3100     4.6340 c3         1 L62      -0.083900
      7 C9           0.9430     1.3490     4.4110 c3         1 L62      -0.083900
      8 C10          0.8690     1.4470     2.8670 c3         1 L62      -0.094400
      9 N1           1.8890    -0.0050    -1.1670 ns         1 L62      -0.573900
     10 C4           1.1570    -0.0120    -2.4360 c3         1 L62       0.191000
     11 C3           0.7930    -1.4500    -2.8080 c3         1 L62      -0.219400
     12 C2          -0.1700    -2.0050    -1.7890 c          1 L62       0.581900
     13 O1          -1.2290    -2.4600    -2.1450 o          1 L62      -0.525100
     14 C11          2.0210     0.5840    -3.5180 ca         1 L62      -0.104300
     15 C12          1.4630     1.4230    -4.4640 ca         1 L62      -0.118000
     16 C13          2.2560     1.9690    -5.4560 ca         1 L62      -0.122500
     17 C14          3.6050     1.6770    -5.5020 ca         1 L62      -0.121000
     18 C15          4.1630     0.8380    -4.5550 ca         1 L62      -0.122500
     19 C16          3.3730     0.2960    -3.5600 ca         1 L62      -0.118000
     20 H1           2.8890     0.0260    -1.1670 hn         1 L62       0.328500
     21 H6           0.1450    -0.4870     2.2130 h1         1 L62       0.078700
     22 H71C         1.2750    -1.5570     3.8750 hc         1 L62       0.058700
     23 H72C         2.8200    -1.0690     3.1410 hc         1 L62       0.058700
     24 H101        -0.1070     1.7990     2.5570 hc         1 L62       0.058700
     25 H102         1.6500     2.0980     2.4920 hc         1 L62       0.058700
     26 H81C         1.9620    -0.1610     5.6040 hc         1 L62       0.048950
     27 H82C         3.0410     0.7810     4.5400 hc         1 L62       0.048950
     28 H91C         1.2130     2.3050     4.8420 hc         1 L62       0.048950
     29 H92C         0.0050     0.9880     4.8150 hc         1 L62       0.048950
     30 H4           0.2520     0.5740    -2.3330 h1         1 L62       0.091700
     31 H31C         0.3300    -1.4630    -3.7870 hc         1 L62       0.074200
     32 H32C         1.6900    -2.0570    -2.8240 hc         1 L62       0.074200
     33 HXT          0.1140    -2.0480    -0.7450 h4         1 L62       0.012200
     34 H12          0.4050     1.6530    -4.4280 ha         1 L62       0.132500
     35 H16          3.8100    -0.3610    -2.8180 ha         1 L62       0.132500
     36 H13          1.8190     2.6270    -6.1980 ha         1 L62       0.134000
     37 H14          4.2260     2.1030    -6.2810 ha         1 L62       0.133000
     38 H15          5.2220     0.6110    -4.5900 ha         1 L62       0.134000
@<TRIPOS>BOND
     1     1     2 2
     2     2     3 1
     3     2     9 1
     4     3     4 1
     5     4     5 1
     6     4     8 1
     7     5     6 1
     8     6     7 1
     9     7     8 1
    10     9    10 1
    11    10    11 1
    12    10    14 1
    13    11    12 1
    14    12    13 2
    15    12    33 1
    16    14    15 ar
    17    14    19 ar
    18    15    16 ar
    19    16    17 ar
    20    17    18 ar
    21    18    19 ar
    22     9    20 1
    23     4    21 1
    24     5    22 1
    25     5    23 1
    26     8    24 1
    27     8    25 1
    28     6    26 1
    29     6    27 1
    30     7    28 1
    31     7    29 1
    32    10    30 1
    33    11    31 1
    34    11    32 1
    35    15    34 1
    36    19    35 1
    37    16    36 1
    38    17    37 1
    39    18    38 1
@<TRIPOS>SUBSTRUCTURE
     1 L62         1 TEMP              0 ****  ****    0 ROOT
