@<TRIPOS>MOLECULE
L63
   41    42     1     0     0
SMALL
bcc


@<TRIPOS>ATOM
      1 O2           0.0000     0.0000     0.0000 o          1 L63      -0.622100
      2 C15          1.2130     0.0000     0.0000 c          1 L63       0.566100
      3 N2           1.8870     0.0000     1.1670 ns         1 L63      -0.048400
      4 O3           1.1810     0.1000     2.3920 oh         1 L63      -0.437100
      5 C14          1.9660    -0.0080    -1.3050 c3         1 L63      -0.049300
      6 C16          2.2780     1.4300    -1.7230 c3         1 L63       0.180100
      7 O4           2.8960     1.4300    -3.0110 oh         1 L63      -0.558800
      8 C17          3.2250     2.0650    -0.7020 c3         1 L63      -0.040100
      9 N1           1.1490    -0.6510    -2.3370 ns         1 L63      -0.183900
     10 C1           1.7400    -1.2250    -3.4040 c          1 L63       0.599700
     11 O1           2.9510    -1.2100    -3.5100 o          1 L63      -0.635100
     12 C2           0.9160    -1.8720    -4.4450 ca         1 L63      -0.156600
     13 C7           1.5280    -2.4680    -5.5510 ca         1 L63      -0.056000
     14 C6           0.7590    -3.0710    -6.5200 ca         1 L63      -0.114000
     15 C5          -0.6300    -3.0890    -6.3990 cp         1 L63      -0.006000
     16 C4          -1.2430    -2.4930    -5.2950 ca         1 L63      -0.114000
     17 C3          -0.4750    -1.8950    -4.3210 ca         1 L63      -0.056000
     18 C8          -1.4580    -3.7390    -7.4430 cp         1 L63      -0.038000
     19 C13         -2.8460    -3.7580    -7.3250 ca         1 L63      -0.096500
     20 C12         -3.6120    -4.3640    -8.3000 ca         1 L63      -0.099000
     21 C11         -3.0020    -4.9530    -9.3940 ca         1 L63      -0.098000
     22 C10         -1.6240    -4.9370    -9.5170 ca         1 L63      -0.099000
     23 C9          -0.8490    -4.3280    -8.5510 ca         1 L63      -0.096500
     24 H13          2.8800    -0.1260     1.1710 hn         1 L63       0.164500
     25 H14          1.7380    -0.1800     3.0990 ho         1 L63       0.395000
     26 H1           2.8920    -0.5570    -1.1840 h1         1 L63       0.065700
     27 H2           1.3580     2.0010    -1.7650 h1         1 L63       0.011700
     28 H18          2.7980     2.2800    -3.4070 ho         1 L63       0.388000
     29 H17          2.6550     2.4230     0.1460 hc         1 L63       0.012700
     30 H16          3.9430     1.3260    -0.3680 hc         1 L63       0.012700
     31 H15          3.7480     2.8950    -1.1620 hc         1 L63       0.012700
     32 H3           0.1520    -0.6600    -2.2520 hn         1 L63       0.201500
     33 H7           2.6070    -2.4540    -5.6460 ha         1 L63       0.117500
     34 H6           1.2330    -3.5330    -7.3780 ha         1 L63       0.115000
     35 H5          -2.3220    -2.5090    -5.2000 ha         1 L63       0.115000
     36 H4          -0.9510    -1.4330    -3.4640 ha         1 L63       0.117500
     37 H12         -3.3240    -3.2960    -6.4690 ha         1 L63       0.111500
     38 H11         -4.6910    -4.3790    -8.2090 ha         1 L63       0.103000
     39 H10         -3.6060    -5.4300   -10.1560 ha         1 L63       0.102000
     40 H9          -1.1530    -5.3980   -10.3770 ha         1 L63       0.103000
     41 H8           0.2300    -4.3160    -8.6480 ha         1 L63       0.111500
@<TRIPOS>BOND
     1     1     2 2   
     2     2     3 1   
     3     2     5 1   
     4     3     4 1   
     5     3    24 1   
     6     4    25 1   
     7     5     6 1   
     8     5     9 1   
     9     5    26 1   
    10     6     7 1   
    11     6     8 1   
    12     6    27 1   
    13     7    28 1   
    14     8    29 1   
    15     8    30 1   
    16     8    31 1   
    17     9    10 1   
    18     9    32 1   
    19    10    11 2   
    20    10    12 1   
    21    12    13 ar  
    22    12    17 ar  
    23    13    14 ar  
    24    13    33 1   
    25    14    15 ar  
    26    14    34 1   
    27    15    16 ar  
    28    15    18 1   
    29    16    17 ar  
    30    16    35 1   
    31    17    36 1   
    32    18    19 ar  
    33    18    23 ar  
    34    19    20 ar  
    35    19    37 1   
    36    20    21 ar  
    37    20    38 1   
    38    21    22 ar  
    39    21    39 1   
    40    22    23 ar  
    41    22    40 1   
    42    23    41 1   
@<TRIPOS>SUBSTRUCTURE
     1 L63         1 TEMP              0 ****  ****    0 ROOT
