@<TRIPOS>MOLECULE
molecule
   41    42     1     0     0
SMALL
bcc


@<TRIPOS>ATOM
      1 O2           0.0000     0.0000     0.0000 o          1 L63      -0.577100
      2 C15          1.2130     0.0000     0.0000 c          1 L63       0.665100
      3 N2           1.8870     0.0000     1.1670 ns         1 L63      -0.466400
      4 O3           1.1810     0.1000     2.3920 oh         1 L63      -0.360100
      5 C14          1.9660    -0.0080    -1.3050 c3         1 L63       0.064700
      6 C16          2.2780     1.4300    -1.7230 c3         1 L63       0.136100
      7 O4           2.8960     1.4300    -3.0110 oh         1 L63      -0.577800
      8 C17          3.2250     2.0650    -0.7020 c3         1 L63      -0.129100
      9 N1           1.1490    -0.6510    -2.3370 ns         1 L63      -0.571900
     10 C1           1.7400    -1.2250    -3.4040 c          1 L63       0.680700
     11 O1           2.9510    -1.2100    -3.5100 o          1 L63      -0.591100
     12 C2           0.9160    -1.8720    -4.4450 ca         1 L63      -0.145600
     13 C7           1.5280    -2.4680    -5.5510 ca         1 L63      -0.083500
     14 C6           0.7590    -3.0710    -6.5200 ca         1 L63      -0.133500
     15 C5          -0.6300    -3.0890    -6.3990 cp         1 L63      -0.009000
     16 C4          -1.2430    -2.4930    -5.2950 ca         1 L63      -0.133500
     17 C3          -0.4750    -1.8950    -4.3210 ca         1 L63      -0.083500
     18 C8          -1.4580    -3.7390    -7.4430 cp         1 L63      -0.043000
     19 C13         -2.8460    -3.7580    -7.3250 ca         1 L63      -0.115000
     20 C12         -3.6120    -4.3640    -8.3000 ca         1 L63      -0.127000
     21 C11         -3.0020    -4.9530    -9.3940 ca         1 L63      -0.123000
     22 C10         -1.6240    -4.9370    -9.5170 ca         1 L63      -0.127000
     23 C9          -0.8490    -4.3280    -8.5510 ca         1 L63      -0.115000
     24 H13          2.8800    -0.1260     1.1710 hn         1 L63       0.327500
     25 H14          1.7380    -0.1800     3.0990 ho         1 L63       0.401000
     26 H1           2.8920    -0.5570    -1.1840 h1         1 L63       0.093700
     27 H2           1.3580     2.0010    -1.7650 h1         1 L63       0.045700
     28 H18          2.7980     2.2800    -3.4070 ho         1 L63       0.403000
     29 H17          2.6550     2.4230     0.1460 hc         1 L63       0.045367
     30 H16          3.9430     1.3260    -0.3680 hc         1 L63       0.045367
     31 H15          3.7480     2.8950    -1.1620 hc         1 L63       0.045367
     32 H3           0.1520    -0.6600    -2.2520 hn         1 L63       0.335500
     33 H7           2.6070    -2.4540    -5.6460 ha         1 L63       0.145000
     34 H6           1.2330    -3.5330    -7.3780 ha         1 L63       0.138000
     35 H5          -2.3220    -2.5090    -5.2000 ha         1 L63       0.138000
     36 H4          -0.9510    -1.4330    -3.4640 ha         1 L63       0.145000
     37 H12         -3.3240    -3.2960    -6.4690 ha         1 L63       0.133500
     38 H11         -4.6910    -4.3790    -8.2090 ha         1 L63       0.131000
     39 H10         -3.6060    -5.4300   -10.1560 ha         1 L63       0.130000
     40 H9          -1.1530    -5.3980   -10.3770 ha         1 L63       0.131000
     41 H8           0.2300    -4.3160    -8.6480 ha         1 L63       0.133500
@<TRIPOS>BOND
     1     7     6 1
     2     8     6 1
     3     6     5 1
     4     1     2 2
     5     2     3 1
     6     2     5 1
     7     4     3 1
     8     5     9 1
     9     9    10 1
    10    10    11 2
    11    10    12 1
    12    17    12 ar
    13    17    16 ar
    14    12    13 ar
    15    16    15 ar
    16    13    14 ar
    17    15    14 ar
    18    15    18 1
    19    23    18 ar
    20    23    22 ar
    21    18    19 ar
    22    22    21 ar
    23    19    20 ar
    24    21    20 ar
    25     3    24 1
    26     4    25 1
    27     5    26 1
    28     6    27 1
    29     7    28 1
    30     8    29 1
    31     8    30 1
    32     8    31 1
    33     9    32 1
    34    13    33 1
    35    14    34 1
    36    16    35 1
    37    17    36 1
    38    19    37 1
    39    20    38 1
    40    21    39 1
    41    22    40 1
    42    23    41 1
@<TRIPOS>SUBSTRUCTURE
     1 L63         1 TEMP              0 ****  ****    0 ROOT
