@<TRIPOS>MOLECULE
L64
   77    83     1     0     0
SMALL
bcc


@<TRIPOS>ATOM
      1 C1           0.0000     0.0000     0.0000 ca         1 L64      -0.230300
      2 N1          -0.0250     0.0010     2.3540 nb         1 L64      -0.587000
      3 O1           4.0980     0.5870     2.1880 o          1 L64      -0.638100
      4 C2           1.3840     0.0000     0.0000 ca         1 L64      -0.073000
      5 N2           4.2350    -0.6510     0.3500 n          1 L64      -0.149800
      6 O2          11.4640    -4.2940    -8.9380 o          1 L64      -0.677100
      7 C3           2.0470     0.0000     1.2330 ca         1 L64      -0.272900
      8 N3           6.2390    -4.1270    -0.8710 na         1 L64       0.382200
      9 O3          10.2460   -10.1210    -1.4650 os         1 L64      -0.407600
     10 C4           1.2910     0.0000     2.4050 ca         1 L64       0.466200
     11 N4           6.1480    -5.0770     0.1530 nc         1 L64      -0.632100
     12 C5          -0.6770     0.0000     1.2060 ca         1 L64       0.426200
     13 N5           8.4040    -6.2610    -3.5520 nb         1 L64      -0.708000
     14 C6           3.5240     0.0000     1.2910 c          1 L64       0.619700
     15 N6           7.3450    -4.2420    -3.0930 nb         1 L64      -0.667000
     16 C7           3.5590    -1.4540    -0.6780 c3         1 L64       0.035500
     17 N7           9.6290    -3.0410    -8.9420 ns         1 L64      -0.040100
     18 C8           4.1540    -2.8650    -0.6720 c3         1 L64      -0.057900
     19 N8          11.0800    -3.0990   -10.7700 ns         1 L64      -0.039100
     20 C9           5.6710    -2.7760    -0.8430 c3         1 L64      -0.029000
     21 N9          14.3620    -4.7270   -12.6760 nb         1 L64      -0.600000
     22 C10          6.2730    -1.9940     0.3260 c3         1 L64      -0.057900
     23 N10          8.4280    -8.0580    -2.0330 nh         1 L64      -0.452300
     24 C11          5.7020    -0.5680     0.3290 c3         1 L64       0.035500
     25 C12          6.9550    -4.6710    -1.8960 ca         1 L64       0.331800
     26 C13          7.3050    -5.9760    -1.4930 ca         1 L64      -0.535500
     27 C14          6.7650    -6.1670    -0.2040 cd         1 L64       0.467800
     28 C15          8.0580    -6.7720    -2.3790 ca         1 L64       0.611200
     29 C16          8.0520    -5.0250    -3.8940 cp         1 L64       0.736500
     30 C17          8.4650    -4.5040    -5.2180 cp         1 L64      -0.187500
     31 C18          8.1110    -3.2110    -5.6020 ca         1 L64      -0.036500
     32 C19          8.4970    -2.7290    -6.8340 ca         1 L64      -0.144500
     33 C20          9.2400    -3.5310    -7.6940 ca         1 L64      -0.060400
     34 C21          9.5930    -4.8200    -7.3130 ca         1 L64      -0.144500
     35 C22          9.2150    -5.3040    -6.0800 ca         1 L64      -0.036500
     36 C23         10.7500    -3.5060    -9.5280 c          1 L64       0.553100
     37 C24         12.1880    -3.6490   -11.4140 ca         1 L64      -0.050400
     38 C25         12.2380    -3.7370   -12.8040 ca         1 L64      -0.252800
     39 C26         13.3520    -4.2880   -13.4020 ca         1 L64       0.424200
     40 C27         14.3530    -4.6620   -11.3570 ca         1 L64       0.424200
     41 C28         13.2760    -4.1250   -10.6830 ca         1 L64      -0.252800
     42 C29          9.2030    -8.6910    -3.1080 c3         1 L64       0.093300
     43 C30          9.5410   -10.1300    -2.7080 c3         1 L64       0.211400
     44 C31          9.5190    -9.5110    -0.3940 c3         1 L64       0.211400
     45 C32          9.1820    -8.0660    -0.7710 c3         1 L64       0.093300
     46 H1          -0.5470    -0.0000    -0.9350 ha         1 L64       0.116000
     47 H2           1.9390    -0.0000    -0.9300 ha         1 L64       0.126000
     48 H4           1.7910     0.0010     3.3660 h4         1 L64       0.000100
     49 H5          -1.7610     0.0010     1.2090 h4         1 L64      -0.018900
     50 H7           3.7120    -1.0000    -1.6500 h1         1 L64       0.040200
     51 H7A          2.5000    -1.5060    -0.4580 h1         1 L64       0.040200
     52 HN7          9.0670    -2.3570    -9.4080 hn         1 L64       0.161500
     53 H8           3.7320    -3.4370    -1.4900 hc         1 L64       0.039200
     54 H8A          3.9250    -3.3490     0.2700 hc         1 L64       0.039200
     55 HN8         10.5400    -2.3890   -11.2240 hn         1 L64       0.162500
     56 H9           5.8980    -2.2660    -1.7710 h1         1 L64       0.059700
     57 H10          7.3500    -1.9510     0.2150 hc         1 L64       0.039200
     58 H10A         6.0200    -2.4860     1.2580 hc         1 L64       0.039200
     59 H11          6.0490    -0.0390     1.2090 h1         1 L64       0.040200
     60 H11A         6.0230    -0.0470    -0.5650 h1         1 L64       0.040200
     61 H14          6.8550    -7.0680     0.3920 h4         1 L64       0.021800
     62 H18          7.5320    -2.5850    -4.9330 ha         1 L64       0.122000
     63 H19          8.2220    -1.7250    -7.1330 ha         1 L64       0.130500
     64 H21         10.1760    -5.4420    -7.9820 ha         1 L64       0.130500
     65 H22          9.4910    -6.3090    -5.7840 ha         1 L64       0.122000
     66 H25         11.4130    -3.3790   -13.4070 ha         1 L64       0.140000
     67 H26         13.3990    -4.3590   -14.4820 h4         1 L64      -0.020400
     68 H27         15.2030    -5.0340   -10.7970 h4         1 L64      -0.020400
     69 H28         13.2740    -4.0750    -9.6010 ha         1 L64       0.140000
     70 H29         10.1200    -8.1360    -3.2660 h1         1 L64       0.036200
     71 H29A         8.6170    -8.6980    -4.0190 h1         1 L64       0.036200
     72 H30          8.6250   -10.6980    -2.5990 h1         1 L64       0.015450
     73 H30A        10.1630   -10.5800    -3.4720 h1         1 L64       0.015450
     74 H31          8.6030   -10.0620    -0.2220 h1         1 L64       0.015450
     75 H31A        10.1260    -9.5180     0.5030 h1         1 L64       0.015450
     76 H32          8.5800    -7.6210     0.0120 h1         1 L64       0.036200
     77 H32A        10.0980    -7.5030    -0.8950 h1         1 L64       0.036200
@<TRIPOS>BOND
     1     1     4 ar  
     2     1    12 ar  
     3     1    46 1   
     4     2    10 ar  
     5     2    12 ar  
     6     3    14 2   
     7     4     7 ar  
     8     4    47 1   
     9     5    14 1   
    10     5    16 1   
    11     5    24 1   
    12     6    36 2   
    13     7    10 ar  
    14     7    14 1   
    15     8    11 1   
    16     8    20 1   
    17     8    25 1   
    18     9    43 1   
    19     9    44 1   
    20    10    48 1   
    21    11    27 2   
    22    12    49 1   
    23    13    28 ar  
    24    13    29 ar  
    25    15    25 ar  
    26    15    29 ar  
    27    16    18 1   
    28    16    50 1   
    29    16    51 1   
    30    17    33 1   
    31    17    36 1   
    32    17    52 1   
    33    18    20 1   
    34    18    53 1   
    35    18    54 1   
    36    19    36 1   
    37    19    37 1   
    38    19    55 1   
    39    20    22 1   
    40    20    56 1   
    41    21    39 ar  
    42    21    40 ar  
    43    22    24 1   
    44    22    57 1   
    45    22    58 1   
    46    23    28 1   
    47    23    42 1   
    48    23    45 1   
    49    24    59 1   
    50    24    60 1   
    51    25    26 ar  
    52    26    27 1   
    53    26    28 ar  
    54    27    61 1   
    55    29    30 1   
    56    30    31 ar  
    57    30    35 ar  
    58    31    32 ar  
    59    31    62 1   
    60    32    33 ar  
    61    32    63 1   
    62    33    34 ar  
    63    34    35 ar  
    64    34    64 1   
    65    35    65 1   
    66    37    38 ar  
    67    37    41 ar  
    68    38    39 ar  
    69    38    66 1   
    70    39    67 1   
    71    40    41 ar  
    72    40    68 1   
    73    41    69 1   
    74    42    43 1   
    75    42    70 1   
    76    42    71 1   
    77    43    72 1   
    78    43    73 1   
    79    44    45 1   
    80    44    74 1   
    81    44    75 1   
    82    45    76 1   
    83    45    77 1   
@<TRIPOS>SUBSTRUCTURE
     1 L64         1 TEMP              0 ****  ****    0 ROOT
