@<TRIPOS>MOLECULE
L66
   50    54     1     0     0
SMALL
bcc


@<TRIPOS>ATOM
      1 O2           0.0000     0.0000     0.0000 o          1 L66      -0.714500
      2 C17          1.2160     0.0000     0.0000 c          1 L66       0.591500
      3 N4           1.8710     0.0000     1.1730 ns         1 L66      -0.127500
      4 C16          3.2190    -0.0000     1.2180 c          1 L66       0.683100
      5 O3           3.8010    -0.0000     2.2890 o          1 L66      -0.696500
      6 N5           1.8720    -0.0070    -1.1760 n          1 L66      -0.006300
      7 C18          1.1200    -0.0120    -2.4340 c3         1 L66       0.067300
      8 C2           3.2580    -0.0070    -1.1970 cc         1 L66       0.375200
      9 C3           3.9470    -0.0010     0.0160 cd         1 L66      -0.617200
     10 N1           4.1630    -0.0130    -2.1730 nc         1 L66      -0.653000
     11 C1           5.3830    -0.0120    -1.6590 cd         1 L66       0.136000
     12 N2           5.2970    -0.0040    -0.3020 na         1 L66       0.543100
     13 C4           6.5770    -0.0020     0.2150 cc         1 L66      -0.334300
     14 N3           6.7150    -0.0150    -1.9910 na         1 L66       0.436000
     15 C5           7.4460    -0.0090    -0.8100 cd         1 L66      -0.176300
     16 C10          8.9220    -0.0100    -0.7000 ca         1 L66       0.001000
     17 C11          9.5830     1.0880    -0.1500 ca         1 L66      -0.080300
     18 C40          8.7950     2.2790     0.3340 c3         1 L66       0.057200
     19 C12         10.9600     1.0850    -0.0480 ca         1 L66      -0.081000
     20 C13         11.6870    -0.0050    -0.4900 ca         1 L66      -0.132000
     21 C15          9.6550    -1.1120    -1.1390 ca         1 L66      -0.114000
     22 C14         11.0370    -1.1030    -1.0380 ca         1 L66       0.119100
     23 O41         11.7550    -2.1750    -1.4660 oh         1 L66      -0.499100
     24 C32          7.2430    -0.0220    -3.2900 ca         1 L66      -0.231200
     25 C33          7.5060     1.1740    -3.9400 ca         1 L66      -0.023000
     26 C34          8.0260     1.1640    -5.2210 ca         1 L66      -0.142000
     27 C35          8.2860    -0.0360    -5.8560 ca         1 L66      -0.023000
     28 C36          8.0260    -1.2320    -5.2140 ca         1 L66      -0.207000
     29 C37          7.5090    -1.2320    -3.9280 ca         1 L66       0.187100
     30 O38          7.2530    -2.4080    -3.2960 os         1 L66      -0.304900
     31 C39          7.5400    -3.6080    -4.0160 c3         1 L66       0.244700
     32 H1           1.3510     0.0000     2.0270 hn         1 L66       0.205500
     33 H2           0.6600    -0.9830    -2.5760 h1         1 L66       0.025367
     34 H3           1.7940     0.1920    -3.2570 h1         1 L66       0.025367
     35 H4           0.3520     0.7500    -2.3980 h1         1 L66       0.025367
     36 H5           6.8360     0.0040     1.2670 h4         1 L66       0.180000
     37 H6           8.1400     2.6240    -0.4570 hc         1 L66       0.012700
     38 H7           9.4760     3.0740     0.6110 hc         1 L66       0.012700
     39 H8           8.2020     1.9940     1.1950 hc         1 L66       0.012700
     40 H9          11.4720     1.9380     0.3790 ha         1 L66       0.111000
     41 H10         12.7670    -0.0020    -0.4100 ha         1 L66       0.114000
     42 H11          9.1470    -1.9670    -1.5670 ha         1 L66       0.127000
     43 H12         12.0330    -2.6840    -0.7220 ho         1 L66       0.404000
     44 H13          7.3040     2.1160    -3.4450 ha         1 L66       0.113000
     45 H14          8.2310     2.1000    -5.7270 ha         1 L66       0.113000
     46 H15          8.6910    -0.0390    -6.8610 ha         1 L66       0.105000
     47 H16          8.2320    -2.1710    -5.7140 ha         1 L66       0.128000
     48 H17          8.5920    -3.6330    -4.2720 h1         1 L66       0.003033
     49 H18          7.2990    -4.4650    -3.3990 h1         1 L66       0.003033
     50 H19          6.9470    -3.6360    -4.9220 h1         1 L66       0.003033
@<TRIPOS>BOND
     1     1     2 2   
     2     2     3 1   
     3     2     6 1   
     4     3     4 1   
     5     3    32 1   
     6     4     5 2   
     7     4     9 1   
     8     6     7 1   
     9     6     8 1   
    10     7    33 1   
    11     7    34 1   
    12     7    35 1   
    13     8     9 2   
    14     8    10 1   
    15     9    12 1   
    16    10    11 2   
    17    11    12 1   
    18    11    14 1   
    19    12    13 1   
    20    13    15 2   
    21    13    36 1   
    22    14    15 1   
    23    14    24 1   
    24    15    16 1   
    25    16    17 ar  
    26    16    21 ar  
    27    17    18 1   
    28    17    19 ar  
    29    18    37 1   
    30    18    38 1   
    31    18    39 1   
    32    19    20 ar  
    33    19    40 1   
    34    20    22 ar  
    35    20    41 1   
    36    21    22 ar  
    37    21    42 1   
    38    22    23 1   
    39    23    43 1   
    40    24    25 ar  
    41    24    29 ar  
    42    25    26 ar  
    43    25    44 1   
    44    26    27 ar  
    45    26    45 1   
    46    27    28 ar  
    47    27    46 1   
    48    28    29 ar  
    49    28    47 1   
    50    29    30 1   
    51    30    31 1   
    52    31    48 1   
    53    31    49 1   
    54    31    50 1   
@<TRIPOS>SUBSTRUCTURE
     1 L66         1 TEMP              0 ****  ****    0 ROOT
