@<TRIPOS>MOLECULE
molecule
   26    26     1     0     0
SMALL
bcc


@<TRIPOS>ATOM
      1 O5           0.0000     0.0000     0.0000 o          1 L69      -0.915500
      2 P1           1.6090     0.0000     0.0000 p5         1 L69       1.104200
      3 O4           2.1460     0.0000     1.5180 o          1 L69      -0.915500
      4 O6           2.1030    -1.2090    -0.6970 o          1 L69      -0.915500
      5 C6           2.2180     1.4870    -0.8600 c3         1 L69      -0.159600
      6 C7           3.2420     1.0810    -1.9220 c3         1 L69      -0.076100
      7 P            0.8190     2.3410    -1.6590 p5         1 L69       1.104200
      8 O3          -0.1180     2.8290    -0.6240 o          1 L69      -0.915500
      9 O2           1.3710     3.5900    -2.5150 o          1 L69      -0.915500
     10 O1           0.0540     1.3180    -2.6380 o          1 L69      -0.915500
     11 O            2.8340     2.3640     0.0840 os         1 L69      -0.215900
     12 C5           3.8830     1.8690     0.7940 ca         1 L69       0.230100
     13 C            4.5420     2.6740     1.7120 ca         1 L69      -0.161500
     14 C4           4.2920     0.5570     0.6030 ca         1 L69      -0.161500
     15 C3           5.3570     0.0540     1.3240 ca         1 L69      -0.177500
     16 C2           6.0190     0.8610     2.2380 ca         1 L69      -0.058900
     17 O7           7.0680     0.3660     2.9470 oh         1 L69      -0.570100
     18 C1           5.6080     2.1710     2.4320 ca         1 L69      -0.177500
     19 H3           3.3570     0.0040    -1.9190 hc         1 L69       0.009033
     20 H4           4.1950     1.5460    -1.7010 hc         1 L69       0.009033
     21 H5           2.8990     1.4050    -2.8970 hc         1 L69       0.009033
     22 H8           4.2200     3.6970     1.8640 ha         1 L69       0.151500
     23 H9           3.7750    -0.0730    -0.1100 ha         1 L69       0.151500
     24 H10          5.6750    -0.9710     1.1750 ha         1 L69       0.066000
     25 H11          6.7560     0.0120     3.7640 ho         1 L69       0.351000
     26 H12          6.1240     2.8000     3.1480 ha         1 L69       0.066000
@<TRIPOS>BOND
     1     4     2 1
     2     8     7 1
     3     2     1 1
     4     2     3 1
     5     2     5 1
     6     7    10 1
     7     7     5 1
     8     7     9 1
     9     5     6 1
    10     5    11 1
    11    11    12 1
    12    12    13 ar
    13    12    14 ar
    14    13    18 ar
    15    14    15 ar
    16    18    16 ar
    17    15    16 ar
    18    16    17 1
    19     6    19 1
    20     6    20 1
    21     6    21 1
    22    13    22 1
    23    14    23 1
    24    15    24 1
    25    17    25 1
    26    18    26 1
@<TRIPOS>SUBSTRUCTURE
     1 L69         1 TEMP              0 ****  ****    0 ROOT
