@<TRIPOS>MOLECULE
molecule
   35    36     1     0     0
SMALL
bcc


@<TRIPOS>ATOM
      1 O1           0.0000     0.0000     0.0000 o          1 L6C      -0.522100
      2 C2           1.2070     0.0000     0.0000 c          1 L6C       0.577900
      3 C3           1.9620     0.0000     1.3040 c3         1 L6C      -0.220400
      4 C4           2.9330    -1.1810     1.3330 c3         1 L6C       0.192000
      5 C12          3.5980    -1.2520     2.6830 ca         1 L6C      -0.105300
      6 C17          3.1460    -2.1550     3.6290 ca         1 L6C      -0.118000
      7 C16          3.7560    -2.2200     4.8680 ca         1 L6C      -0.122000
      8 C15          4.8180    -1.3840     5.1610 ca         1 L6C      -0.120000
      9 C14          5.2700    -0.4840     4.2150 ca         1 L6C      -0.122000
     10 C13          4.6630    -0.4220     2.9750 ca         1 L6C      -0.118000
     11 N1           3.9520    -1.0000     0.2960 ns         1 L6C      -0.571900
     12 C5           3.7060    -1.3990    -0.9680 c          1 L6C       0.742100
     13 O2           2.6390    -1.9090    -1.2470 o          1 L6C      -0.596000
     14 O3           4.6430    -1.2320    -1.9210 os         1 L6C      -0.350200
     15 C6           4.3730    -1.7480    -3.1490 ca         1 L6C       0.118100
     16 C7           3.4980    -1.0910    -4.0020 ca         1 L6C      -0.122500
     17 C8           3.2250    -1.6170    -5.2500 ca         1 L6C      -0.117500
     18 C9           3.8220    -2.7980    -5.6490 ca         1 L6C      -0.123000
     19 C10          4.6940    -3.4560    -4.8010 ca         1 L6C      -0.117500
     20 C11          4.9750    -2.9300    -3.5540 ca         1 L6C      -0.122500
     21 H31C         1.2610    -0.0890     2.1260 hc         1 L6C       0.075200
     22 H32C         2.5160     0.9260     1.4010 hc         1 L6C       0.075200
     23 HXT          1.7480     0.0130    -0.9390 h4         1 L6C       0.013200
     24 H4           2.3900    -2.1000     1.1490 h1         1 L6C       0.093700
     25 H1           4.8380    -0.5980     0.5300 hn         1 L6C       0.329500
     26 H17          2.3140    -2.8090     3.3990 ha         1 L6C       0.132500
     27 H13          5.0170     0.2840     2.2330 ha         1 L6C       0.132500
     28 H16          3.4020    -2.9270     5.6090 ha         1 L6C       0.135000
     29 H15          5.2940    -1.4340     6.1320 ha         1 L6C       0.134000
     30 H14          6.1030     0.1700     4.4430 ha         1 L6C       0.135000
     31 H7           3.0290    -0.1650    -3.6900 ha         1 L6C       0.140000
     32 H11          5.6580    -3.4460    -2.8890 ha         1 L6C       0.140000
     33 H8           2.5420    -1.1040    -5.9160 ha         1 L6C       0.135500
     34 H9           3.6050    -3.2100    -6.6270 ha         1 L6C       0.133000
     35 H10          5.1630    -4.3800    -5.1160 ha         1 L6C       0.135500
@<TRIPOS>BOND
     1     1     2 2
     2     2     3 1
     3     2    23 1
     4     3     4 1
     5     4     5 1
     6     4    11 1
     7     5     6 ar
     8     5    10 ar
     9     6     7 ar
    10     7     8 ar
    11     8     9 ar
    12     9    10 ar
    13    11    12 1
    14    12    13 2
    15    12    14 1
    16    14    15 1
    17    15    16 ar
    18    15    20 ar
    19    16    17 ar
    20    17    18 ar
    21    18    19 ar
    22    19    20 ar
    23     3    21 1
    24     3    22 1
    25     4    24 1
    26    11    25 1
    27     6    26 1
    28    10    27 1
    29     7    28 1
    30     8    29 1
    31     9    30 1
    32    16    31 1
    33    20    32 1
    34    17    33 1
    35    18    34 1
    36    19    35 1
@<TRIPOS>SUBSTRUCTURE
     1 L6C         1 TEMP              0 ****  ****    0 ROOT
