@<TRIPOS>MOLECULE
molecule
   61    63     1     0     0
SMALL
bcc


@<TRIPOS>ATOM
      1 C1           0.0000     0.0000     0.0000 c3         1 L6G       0.055700
      2 C2           1.5300     0.0000     0.0000 c3         1 L6G      -0.026200
      3 C3           2.0320     0.0000     1.4210 c2         1 L6G      -0.144200
      4 C4           2.8640    -0.9300     1.8220 c2         1 L6G      -0.158200
      5 C5           3.3670    -0.9300     3.2420 c3         1 L6G       0.152900
      6 C6           3.2350     1.3780     3.9370 c          1 L6G       0.649100
      7 C7           2.5150     2.5200     4.6160 c3         1 L6G       0.035700
      8 C8           2.8510     2.5340     6.1090 c3         1 L6G      -0.090700
      9 C9           2.3840     1.2250     6.7480 c3         1 L6G      -0.096100
     10 C10          4.3630     2.6780     6.2900 c3         1 L6G      -0.096100
     11 C11          0.2370     3.1490     5.1300 c          1 L6G       0.674100
     12 C12         -1.2430     2.8360     5.0420 c3         1 L6G       0.045200
     13 C13         -1.8400     3.5670     3.8440 c3         1 L6G      -0.072100
     14 C14         -1.9420     3.2830     6.3310 c3         1 L6G       0.005700
     15 C15         -1.9110     0.6850     5.7590 ce         1 L6G       0.458200
     16 C16         -1.9740    -0.7890     5.7210 cc         1 L6G       0.349000
     17 C17         -2.8380    -1.5350     6.4350 cd         1 L6G      -0.186400
     18 C18         -1.2820    -2.7800     5.0320 cd         1 L6G       0.409700
     19 C19         -0.4190    -3.7640     4.2830 c3         1 L6G       0.078700
     20 C20          1.6340    -2.6650     3.6410 c          1 L6G       0.655100
     21 C21          3.0720    -2.2840     3.8880 c3         1 L6G      -0.168400
     22 N1           2.6820     0.1310     4.0080 ns         1 L6G      -0.578900
     23 N2           1.0600     2.2990     4.4280 ns         1 L6G      -0.567900
     24 N3          -1.3590     1.4060     4.8480 n2         1 L6G      -0.592900
     25 N4          -1.1550    -1.5010     4.9500 nc         1 L6G      -0.618000
     26 N5           0.9980    -3.4400     4.5660 ns         1 L6G      -0.584900
     27 O1           4.2770     1.5640     3.3440 o          1 L6G      -0.591100
     28 O2           0.6660     4.0830     5.7730 o          1 L6G      -0.590100
     29 O3           1.0570    -2.2910     2.6420 o          1 L6G      -0.563100
     30 S1          -0.6050     0.0010    -1.7110 sh         1 L6G      -0.451900
     31 S2          -2.5360     1.7150     7.0510 ss         1 L6G      -0.332300
     32 S3          -2.5420    -3.1880     6.1080 ss         1 L6G      -0.138300
     33 H1          -0.3610     0.8840     0.5110 h1         1 L6G       0.063200
     34 H2          -0.3610    -0.8850     0.5100 h1         1 L6G       0.063200
     35 H3           1.8910     0.8850    -0.5110 hc         1 L6G       0.057200
     36 H4           1.8910    -0.8840    -0.5110 hc         1 L6G       0.057200
     37 H5           1.7050     0.7690     2.1110 ha         1 L6G       0.124000
     38 H6           3.1910    -1.6980     1.1320 ha         1 L6G       0.131000
     39 H7           4.4350    -0.7500     3.2480 h1         1 L6G       0.083700
     40 H8           2.8070     3.4610     4.1630 h1         1 L6G       0.085700
     41 H9           2.3490     3.3680     6.5850 hc         1 L6G       0.099700
     42 H10          2.1930     1.3860     7.8020 hc         1 L6G       0.040367
     43 H11          3.1530     0.4710     6.6320 hc         1 L6G       0.040367
     44 H12          1.4740     0.8910     6.2630 hc         1 L6G       0.040367
     45 H13          4.8440     1.7310     6.0770 hc         1 L6G       0.040367
     46 H14          4.7370     3.4340     5.6100 hc         1 L6G       0.040367
     47 H15          4.5780     2.9710     7.3100 hc         1 L6G       0.040367
     48 H16         -1.7270     4.6360     3.9800 hc         1 L6G       0.054700
     49 H17         -2.8910     3.3220     3.7580 hc         1 L6G       0.054700
     50 H18         -1.3230     3.2620     2.9410 hc         1 L6G       0.054700
     51 H19         -1.2380     3.7650     6.9990 h1         1 L6G       0.099700
     52 H20         -2.7760     3.9370     6.1050 h1         1 L6G       0.099700
     53 H22         -3.6790    -1.1500     6.9990 h4         1 L6G       0.195000
     54 H23         -0.6080    -3.6820     3.2190 h1         1 L6G       0.077700
     55 H24         -0.6380    -4.7710     4.6170 h1         1 L6G       0.077700
     56 H25          3.2500    -2.2200     4.9550 hc         1 L6G       0.068200
     57 H26          3.7230    -3.0370     3.4590 hc         1 L6G       0.068200
     58 H27          2.0900    -0.1110     4.7780 hn         1 L6G       0.338500
     59 H28          0.7250     1.8500     3.5990 hn         1 L6G       0.349500
     60 H31          1.5300    -4.0200     5.1840 hn         1 L6G       0.316500
     61 H32         -1.9060    -0.2620    -1.7200 hs         1 L6G       0.216800
@<TRIPOS>BOND
     1    10     8 1
     2     8     9 1
     3     8     7 1
     4    28    11 2
     5    27     6 2
     6     7     6 1
     7     7    23 1
     8     6    22 1
     9    11    23 1
    10    11    12 1
    11    14    12 1
    12    14    31 1
    13    22     5 1
    14    12    13 1
    15    12    24 1
    16    31    15 1
    17     2     3 1
    18     2     1 1
    19     4     3 2
    20     4     5 1
    21     5    21 1
    22    30     1 1
    23    15    24 2
    24    15    16 1
    25    29    20 2
    26    16    25 1
    27    16    17 2
    28    21    20 1
    29    20    26 1
    30    25    18 2
    31    17    32 1
    32    18    32 1
    33    18    19 1
    34    26    19 1
    35     1    33 1
    36     1    34 1
    37     2    35 1
    38     2    36 1
    39     3    37 1
    40     4    38 1
    41     5    39 1
    42     7    40 1
    43     8    41 1
    44     9    42 1
    45     9    43 1
    46     9    44 1
    47    10    45 1
    48    10    46 1
    49    10    47 1
    50    13    48 1
    51    13    49 1
    52    13    50 1
    53    14    51 1
    54    14    52 1
    55    17    53 1
    56    19    54 1
    57    19    55 1
    58    21    56 1
    59    21    57 1
    60    22    58 1
    61    23    59 1
    62    26    60 1
    63    30    61 1
@<TRIPOS>SUBSTRUCTURE
     1 L6G         1 TEMP              0 ****  ****    0 ROOT
