@<TRIPOS>MOLECULE
L6G
   61    65     1     0     0
SMALL
bcc


@<TRIPOS>ATOM
      1 C1           0.0000     0.0000     0.0000 c3         1 L6G      -0.183000
      2 C2           1.5300     0.0000     0.0000 DU         1 L6G      -0.056000
      3 C3           2.0320     0.0000     1.4210 c2         1 L6G      -0.156000
      4 C4           2.8640    -0.9300     1.8220 c2         1 L6G      -0.257000
      5 C5           3.3670    -0.9300     3.2420 DU         1 L6G       0.132000
      6 C6           3.2350     1.3780     3.9370 c2         1 L6G       0.232000
      7 C7           2.5150     2.5200     4.6160 c3         1 L6G      -0.075000
      8 C8           2.8510     2.5340     6.1090 c3         1 L6G      -0.116000
      9 C9           2.3840     1.2250     6.7480 c3         1 L6G      -0.125000
     10 C10          4.3630     2.6780     6.2900 c3         1 L6G      -0.125000
     11 C11          0.2370     3.1490     5.1300 c2         1 L6G       0.245000
     12 C12         -1.2430     2.8360     5.0420 c3         1 L6G      -0.063000
     13 C13         -1.8400     3.5670     3.8440 c3         1 L6G      -0.097000
     14 C14         -1.9420     3.2830     6.3310 c3         1 L6G      -0.181000
     15 C15         -1.9110     0.6850     5.7590 c2         1 L6G      -0.057000
     16 C16         -1.9740    -0.7890     5.7210 c2         1 L6G      -0.054000
     17 C17         -2.8380    -1.5350     6.4350 c2         1 L6G      -0.304000
     18 C18         -1.2820    -2.7800     5.0320 c2         1 L6G      -0.283000
     19 C19         -0.4190    -3.7640     4.2830 c3         1 L6G       0.006000
     20 C20          1.6340    -2.6650     3.6410 c2         1 L6G       0.226000
     21 C21          3.0720    -2.2840     3.8880 c3         1 L6G      -0.186000
     22 N1           2.6820     0.1310     4.0080 ns         1 L6G      -0.058000
     23 N2           1.0600     2.2990     4.4280 ns         1 L6G      -0.026000
     24 N3          -1.3590     1.4060     4.8480 n2         1 L6G      -0.104000
     25 N4          -1.1550    -1.5010     4.9500 n2         1 L6G       0.018000
     26 N5           0.9980    -3.4400     4.5660 ns         1 L6G      -0.004000
     27 O1           4.2770     1.5640     3.3440 o          1 L6G      -0.358000
     28 O2           0.6660     4.0830     5.7730 o          1 L6G      -0.374000
     29 O3           1.0570    -2.2910     2.6420 o          1 L6G      -0.369000
     30 S1          -0.6050     0.0010    -1.7110 sh         1 L6G      -0.057000
     31 S2          -2.5360     1.7150     7.0510 ss         1 L6G       0.043000
     32 S3          -2.5420    -3.1880     6.1080 ss         1 L6G       0.345000
     33 H1          -0.3610     0.8840     0.5110 h1         1 L6G       0.080000
     34 H2          -0.3610    -0.8850     0.5100 h1         1 L6G       0.080000
     35 H3           1.8910     0.8850    -0.5110 ha         1 L6G       0.082000
     36 H4           1.8910    -0.8850    -0.5110 ha         1 L6G       0.082000
     37 H5           1.2520    -0.6530     1.0480 DU         1 L6G       0.112000
     38 H6           2.2930    -1.2790     2.6730 DU         1 L6G       0.082000
     39 H7           4.4350    -0.7500     3.2480 ha         1 L6G       0.093000
     40 H8           2.8070     3.4610     4.1630 h1         1 L6G       0.100000
     41 H9           2.3490     3.3680     6.5850 hc         1 L6G       0.117000
     42 H10          2.9100     0.3940     6.2950 hc         1 L6G       0.048833
     43 H11          2.5910     1.2480     7.8110 hc         1 L6G       0.048833
     44 H12          1.3180     1.1060     6.5910 hc         1 L6G       0.048833
     45 H13          4.5730     3.0520     7.2850 hc         1 L6G       0.048833
     46 H14          4.7500     3.3730     5.5540 hc         1 L6G       0.048833
     47 H15          4.8360     1.7130     6.1590 hc         1 L6G       0.048833
     48 H16         -1.3280     3.2570     2.9410 hc         1 L6G       0.059333
     49 H17         -2.8930     3.3280     3.7620 hc         1 L6G       0.059333
     50 H18         -1.7220     4.6360     3.9770 hc         1 L6G       0.059333
     51 H19         -2.7760     3.9370     6.1050 h1         1 L6G       0.116500
     52 H20         -1.2380     3.7650     6.9990 h1         1 L6G       0.116500
     53 H22         -3.5030    -1.1580     7.2030 h4         1 L6G       0.176000
     54 H23         -0.6380    -4.7710     4.6170 h1         1 L6G       0.086000
     55 H24         -0.6080    -3.6820     3.2190 h1         1 L6G       0.086000
     56 H25          3.2500    -2.2200     4.9550 hc         1 L6G       0.091500
     57 H26          3.7230    -3.0370     3.4590 hc         1 L6G       0.091500
     58 H27          1.7200     0.0240     4.2610 hn         1 L6G       0.126000
     59 H28          0.7250     1.8500     3.5980 hn         1 L6G       0.127000
     60 H31          1.5300    -4.0200     5.1840 hn         1 L6G       0.097000
     61 H32         -1.9320    -0.0320    -1.7110 hs         1 L6G       0.013000
@<TRIPOS>BOND
     1     1     2 1   
     2     1    30 1   
     3     1    33 1   
     4     1    34 1   
     5     2     3 1   
     6     2    35 1   
     7     2    36 1   
     8     2    37 1   
     9     3     4 1   
    10     3    37 1   
    11     4     5 1   
    12     4    38 1   
    13     5    21 1   
    14     5    22 1   
    15     5    38 1   
    16     5    39 1   
    17     6     7 1   
    18     6    22 1   
    19     6    27 1   
    20     7     8 1   
    21     7    23 1   
    22     7    40 1   
    23     8     9 1   
    24     8    10 1   
    25     8    41 1   
    26     9    42 1   
    27     9    43 1   
    28     9    44 1   
    29    10    45 1   
    30    10    46 1   
    31    10    47 1   
    32    11    12 1   
    33    11    23 1   
    34    11    28 1   
    35    12    13 1   
    36    12    14 1   
    37    12    24 1   
    38    13    48 1   
    39    13    49 1   
    40    13    50 1   
    41    14    31 1   
    42    14    51 1   
    43    14    52 1   
    44    15    16 1   
    45    15    24 1   
    46    15    31 1   
    47    16    17 1   
    48    16    25 1   
    49    17    32 1   
    50    17    53 1   
    51    18    19 1   
    52    18    25 1   
    53    18    32 1   
    54    19    26 1   
    55    19    54 1   
    56    19    55 1   
    57    20    21 1   
    58    20    26 1   
    59    20    29 1   
    60    21    56 1   
    61    21    57 1   
    62    22    58 1   
    63    23    59 1   
    64    26    60 1   
    65    30    61 1   
@<TRIPOS>SUBSTRUCTURE
     1 L6G         1 TEMP              0 ****  ****    0 ROOT
