@<TRIPOS>MOLECULE
L6I
   68    72     1     0     0
SMALL
bcc


@<TRIPOS>ATOM
      1 C1           0.0000     0.0000     0.0000 c3         1 L6I       0.243700
      2 O2           1.4290     0.0000     0.0000 os         1 L6I      -0.332900
      3 C3           2.0470     0.0000     1.2110 ca         1 L6I       0.157100
      4 C4           1.2990    -0.0060     2.3730 ca         1 L6I      -0.193000
      5 C5           1.9230    -0.0060     3.6130 ca         1 L6I      -0.019300
      6 C6           3.2860     0.0000     3.7080 ca         1 L6I      -0.088000
      7 C7           4.0650     0.0050     2.5480 ca         1 L6I       0.069400
      8 N8           5.3890     0.0120     2.2940 nc         1 L6I      -0.215400
      9 N9           5.5760     0.0150     1.0210 nd         1 L6I      -0.348400
     10 N10          4.4620     0.0120     0.3750 na         1 L6I       0.571900
     11 C11          4.3130     0.0130    -1.0830 c3         1 L6I       0.015600
     12 C12          3.4380    -0.0000     1.2900 ca         1 L6I      -0.334200
     13 C13          1.0890    -0.0120     4.8670 c3         1 L6I       0.058900
     14 C14          0.0710     1.1290     4.8090 c3         1 L6I      -0.137400
     15 C15         -0.6800     1.2000     6.1140 c          1 L6I       0.975600
     16 O16         -0.4270     0.4180     7.0000 o          1 L6I      -0.892300
     17 O17         -1.6290     2.1320     6.2920 o          1 L6I      -0.892300
     18 C18          0.3630    -1.3280     4.9820 ca         1 L6I      -0.008300
     19 C19         -0.6420    -1.6420     4.0850 ca         1 L6I      -0.110000
     20 C20         -1.3090    -2.8480     4.1890 ca         1 L6I      -0.105000
     21 C21         -0.9710    -3.7410     5.1890 ca         1 L6I      -0.108300
     22 C22         -1.6970    -5.0560     5.3030 c3         1 L6I       0.067200
     23 C23          0.0340    -3.4270     6.0850 ca         1 L6I      -0.123300
     24 C24          0.4040    -4.4000     7.1750 c3         1 L6I       0.301100
     25 N25          1.5720    -3.8980     7.9030 n3         1 L6I      -0.522500
     26 C26          2.9200    -4.1420     7.3970 c3         1 L6I       0.193800
     27 C27          3.7650    -4.9890     8.3340 c3         1 L6I       0.155100
     28 C28          5.1020    -5.2990     7.6580 c3         1 L6I       0.002900
     29 O29          4.0110    -4.3130     9.5720 os         1 L6I      -0.315900
     30 C30          3.1670    -4.6210    10.5940 ca         1 L6I       0.215100
     31 C31          3.6120    -5.4120    11.6460 ca         1 L6I      -0.158000
     32 C32          2.7370    -5.7680    12.6540 ca         1 L6I      -0.050000
     33 C33          1.4200    -5.3480    12.6250 ca         1 L6I      -0.154000
     34 C34          0.9760    -4.5420    11.5880 ca         1 L6I       0.028000
     35 C35          1.8570    -4.1710    10.6030 ca         1 L6I      -0.181500
     36 S36          1.3800    -3.0340     9.3160 sy         1 L6I       1.040200
     37 O37          2.3540    -2.0000     9.3000 o          1 L6I      -0.547800
     38 O38         -0.0130    -2.7990     9.4680 o          1 L6I      -0.547800
     39 C39          0.7040    -2.2220     5.9790 ca         1 L6I      -0.058000
     40 H13          1.7320     0.1210     5.7290 hc         1 L6I       0.060700
     41 H27          3.2430    -5.9170     8.5380 h1         1 L6I       0.006700
     42 H1          -0.3610     0.0490    -1.0200 h1         1 L6I       0.000033
     43 H1A         -0.3610     0.8590     0.5520 h1         1 L6I       0.000033
     44 H1B         -0.3610    -0.9080     0.4680 h1         1 L6I       0.000033
     45 H4           0.2170    -0.0110     2.3170 ha         1 L6I       0.146000
     46 H6           3.7620     0.0000     4.6810 ha         1 L6I       0.125000
     47 H11          3.7810     0.9050    -1.3910 h1         1 L6I       0.024700
     48 H11A         3.7560    -0.8640    -1.3900 h1         1 L6I       0.024700
     49 H11B         5.2930    -0.0010    -1.5460 h1         1 L6I       0.024700
     50 H14         -0.6260     0.9500     4.0000 hc         1 L6I       0.011700
     51 H14A         0.5880     2.0660     4.6390 hc         1 L6I       0.011700
     52 H19         -0.9080    -0.9430     3.3010 ha         1 L6I       0.106000
     53 H20         -2.0960    -3.0950     3.4870 ha         1 L6I       0.090000
     54 H22         -0.9860    -5.8700     5.2260 hc         1 L6I      -0.002300
     55 H22A        -2.2030    -5.1080     6.2590 hc         1 L6I      -0.002300
     56 H22B        -2.4250    -5.1360     4.5040 hc         1 L6I      -0.002300
     57 H24         -0.4290    -4.5080     7.8600 h1         1 L6I       0.021700
     58 H24A         0.6380    -5.3620     6.7370 h1         1 L6I       0.021700
     59 H26          3.4130    -3.1880     7.2520 h1         1 L6I       0.038700
     60 H26A         2.8450    -4.6500     6.4430 h1         1 L6I       0.038700
     61 H28          4.9250    -5.8460     6.7400 hc         1 L6I       0.011700
     62 H28A         5.7130    -5.8990     8.3230 hc         1 L6I       0.011700
     63 H28B         5.6170    -4.3730     7.4330 hc         1 L6I       0.011700
     64 H31          4.6420    -5.7460    11.6780 ha         1 L6I       0.113000
     65 H32          3.0820    -6.3980    13.4660 ha         1 L6I       0.094000
     66 H33          0.7420    -5.6330    13.4210 ha         1 L6I       0.104000
     67 H34         -0.0540    -4.2080    11.5560 ha         1 L6I       0.130000
     68 H39          1.4910    -1.9760     6.6810 ha         1 L6I       0.124000
@<TRIPOS>BOND
     1     1     2 1   
     2     1    42 1   
     3     1    43 1   
     4     1    44 1   
     5     2     3 1   
     6     3     4 ar  
     7     3    12 ar  
     8     4     5 ar  
     9     4    45 1   
    10     5     6 ar  
    11     5    13 1   
    12     6     7 ar  
    13     6    46 1   
    14     7     8 1   
    15     7    12 ar  
    16     8     9 2   
    17     9    10 1   
    18    10    11 1   
    19    10    12 1   
    20    11    47 1   
    21    11    48 1   
    22    11    49 1   
    23    13    14 1   
    24    13    18 1   
    25    13    40 1   
    26    14    15 1   
    27    14    50 1   
    28    14    51 1   
    29    15    16 1   
    30    15    17 1   
    31    18    19 ar  
    32    18    39 ar  
    33    19    20 ar  
    34    19    52 1   
    35    20    21 ar  
    36    20    53 1   
    37    21    22 1   
    38    21    23 ar  
    39    22    54 1   
    40    22    55 1   
    41    22    56 1   
    42    23    24 1   
    43    23    39 ar  
    44    24    25 1   
    45    24    57 1   
    46    24    58 1   
    47    25    26 1   
    48    25    36 1   
    49    26    27 1   
    50    26    59 1   
    51    26    60 1   
    52    27    28 1   
    53    27    29 1   
    54    27    41 1   
    55    28    61 1   
    56    28    62 1   
    57    28    63 1   
    58    29    30 1   
    59    30    31 ar  
    60    30    35 ar  
    61    31    32 ar  
    62    31    64 1   
    63    32    33 ar  
    64    32    65 1   
    65    33    34 ar  
    66    33    66 1   
    67    34    35 ar  
    68    34    67 1   
    69    35    36 1   
    70    36    37 2   
    71    36    38 2   
    72    39    68 1   
@<TRIPOS>SUBSTRUCTURE
     1 L6I         1 TEMP              0 ****  ****    0 ROOT
