@<TRIPOS>MOLECULE
molecule
   35    38     1     0     0
SMALL
bcc


@<TRIPOS>ATOM
      1 OAO          0.0000     0.0000     0.0000 o          1 L6Y      -0.585500
      2 CAN          1.2150     0.0000     0.0000 c          1 L6Y       0.718100
      3 NAM          1.8850     0.0000     1.1670 n          1 L6Y      -0.353900
      4 OAX          1.1470    -0.0010     2.3760 oh         1 L6Y      -0.338100
      5 CAK          3.2300    -0.0010     1.2290 c          1 L6Y       0.720100
      6 OAL          3.7860    -0.0020     2.3100 o          1 L6Y      -0.585500
      7 CAJ          4.0300    -0.0010    -0.0060 ca         1 L6Y      -0.162600
      8 CAI          5.4170    -0.0020     0.0140 ca         1 L6Y      -0.024000
      9 CAH          6.1320     0.0000    -1.1790 ca         1 L6Y      -0.144000
     10 CAG          5.5010     0.0010    -2.3890 ca         1 L6Y      -0.072000
     11 CAF          4.1000     0.0000    -2.4520 ca         1 L6Y      -0.040000
     12 CAE          3.3610    -0.0000    -1.2510 ca         1 L6Y       0.008000
     13 CAD          1.9480    -0.0060    -1.2800 ca         1 L6Y      -0.151600
     14 CAC          1.2910    -0.0110    -2.5010 ca         1 L6Y      -0.032000
     15 CAB          2.0130    -0.0100    -3.6870 ca         1 L6Y      -0.115000
     16 CAA          3.4020     0.0010    -3.6850 ca         1 L6Y      -0.097600
     17 CAP          4.1470     0.0020    -4.9610 c          1 L6Y       0.584300
     18 OAQ          4.2380    -1.0200    -5.6120 o          1 L6Y      -0.501100
     19 CAR          4.7830     1.2450    -5.4450 ca         1 L6Y      -0.185600
     20 CAS          5.5830     1.2240    -6.5900 ca         1 L6Y      -0.075500
     21 CAT          6.1710     2.3890    -7.0360 ca         1 L6Y      -0.142500
     22 CAU          5.9720     3.5760    -6.3520 ca         1 L6Y      -0.094000
     23 CAV          5.1800     3.6030    -5.2170 ca         1 L6Y      -0.142500
     24 CAW          4.5800     2.4480    -4.7630 ca         1 L6Y      -0.075500
     25 H1           0.9830     0.8880     2.6450 ho         1 L6Y       0.409000
     26 H2           5.9440    -0.0020     0.9610 ha         1 L6Y       0.162000
     27 H3           7.2150     0.0020    -1.1460 ha         1 L6Y       0.145000
     28 H4           6.0830     0.0030    -3.3030 ha         1 L6Y       0.148000
     29 H5           0.2080    -0.0200    -2.5300 ha         1 L6Y       0.165000
     30 H6           1.4830    -0.0190    -4.6320 ha         1 L6Y       0.152000
     31 H7           5.7400     0.2960    -7.1260 ha         1 L6Y       0.147000
     32 H8           6.7920     2.3750    -7.9240 ha         1 L6Y       0.138000
     33 H9           6.4390     4.4870    -6.7060 ha         1 L6Y       0.135000
     34 H10          5.0260     4.5360    -4.6880 ha         1 L6Y       0.138000
     35 H11          3.9600     2.4710    -3.8740 ha         1 L6Y       0.147000
@<TRIPOS>BOND
     1    23    22 ar
     2    23    24 ar
     3    22    21 ar
     4    24    19 ar
     5    21    20 ar
     6    19    20 ar
     7    19    17 1
     8    18    17 2
     9    17    16 1
    10    16    15 ar
    11    16    11 ar
    12    15    14 ar
    13    10    11 ar
    14    10     9 ar
    15    11    12 ar
    16     9     8 ar
    17    14    13 ar
    18    12    13 ar
    19    12     7 ar
    20    13     2 1
    21     8     7 ar
    22     7     5 1
    23     2     1 2
    24     2     3 1
    25     5     3 1
    26     5     6 2
    27     3     4 1
    28     4    25 1
    29     8    26 1
    30     9    27 1
    31    10    28 1
    32    14    29 1
    33    15    30 1
    34    20    31 1
    35    21    32 1
    36    22    33 1
    37    23    34 1
    38    24    35 1
@<TRIPOS>SUBSTRUCTURE
     1 L6Y         1 TEMP              0 ****  ****    0 ROOT
