@<TRIPOS>MOLECULE
L6Y
   35    38     1     0     0
SMALL
bcc


@<TRIPOS>ATOM
      1 OAO          0.0000     0.0000     0.0000 o          1 L6Y      -0.627500
      2 CAN          1.2150     0.0000     0.0000 c          1 L6Y       0.632100
      3 NAM          1.8850     0.0000     1.1670 n          1 L6Y       0.037100
      4 OAX          1.1470    -0.0010     2.3760 oh         1 L6Y      -0.417100
      5 CAK          3.2300    -0.0010     1.2290 c          1 L6Y       0.635100
      6 OAL          3.7860    -0.0020     2.3100 o          1 L6Y      -0.628500
      7 CAJ          4.0300    -0.0010    -0.0060 ca         1 L6Y      -0.179600
      8 CAI          5.4170    -0.0020     0.0140 ca         1 L6Y       0.013000
      9 CAH          6.1320     0.0000    -1.1790 ca         1 L6Y      -0.120000
     10 CAG          5.5010     0.0010    -2.3890 ca         1 L6Y      -0.048000
     11 CAF          4.1000     0.0000    -2.4520 ca         1 L6Y      -0.038000
     12 CAE          3.3610    -0.0000    -1.2510 ca         1 L6Y       0.013000
     13 CAD          1.9480    -0.0060    -1.2800 ca         1 L6Y      -0.167600
     14 CAC          1.2910    -0.0110    -2.5010 ca         1 L6Y       0.002000
     15 CAB          2.0130    -0.0100    -3.6870 ca         1 L6Y      -0.087000
     16 CAA          3.4020     0.0010    -3.6850 ca         1 L6Y      -0.100600
     17 CAP          4.1470     0.0020    -4.9610 c          1 L6Y       0.644300
     18 OAQ          4.2380    -1.0200    -5.6120 o          1 L6Y      -0.538100
     19 CAR          4.7830     1.2450    -5.4450 ca         1 L6Y      -0.197600
     20 CAS          5.5830     1.2240    -6.5900 ca         1 L6Y      -0.046500
     21 CAT          6.1710     2.3890    -7.0360 ca         1 L6Y      -0.117000
     22 CAU          5.9720     3.5760    -6.3520 ca         1 L6Y      -0.064000
     23 CAV          5.1800     3.6030    -5.2170 ca         1 L6Y      -0.117000
     24 CAW          4.5800     2.4480    -4.7630 ca         1 L6Y      -0.046500
     25 H1           0.9830     0.8880     2.6450 ho         1 L6Y       0.404000
     26 H2           5.9440    -0.0020     0.9610 ha         1 L6Y       0.127000
     27 H3           7.2150     0.0020    -1.1460 ha         1 L6Y       0.112000
     28 H4           6.0830     0.0030    -3.3030 ha         1 L6Y       0.117000
     29 H5           0.2080    -0.0200    -2.5300 ha         1 L6Y       0.129000
     30 H6           1.4830    -0.0190    -4.6320 ha         1 L6Y       0.118000
     31 H7           5.7400     0.2960    -7.1260 ha         1 L6Y       0.117500
     32 H8           6.7920     2.3750    -7.9240 ha         1 L6Y       0.108500
     33 H9           6.4390     4.4870    -6.7060 ha         1 L6Y       0.104000
     34 H10          5.0260     4.5360    -4.6880 ha         1 L6Y       0.108500
     35 H11          3.9600     2.4710    -3.8740 ha         1 L6Y       0.117500
@<TRIPOS>BOND
     1     1     2 2   
     2     2     3 1   
     3     2    13 1   
     4     3     4 1   
     5     3     5 1   
     6     4    25 1   
     7     5     6 2   
     8     5     7 1   
     9     7     8 ar  
    10     7    12 ar  
    11     8     9 ar  
    12     8    26 1   
    13     9    10 ar  
    14     9    27 1   
    15    10    11 ar  
    16    10    28 1   
    17    11    12 ar  
    18    11    16 ar  
    19    12    13 ar  
    20    13    14 ar  
    21    14    15 ar  
    22    14    29 1   
    23    15    16 ar  
    24    15    30 1   
    25    16    17 1   
    26    17    18 2   
    27    17    19 1   
    28    19    20 ar  
    29    19    24 ar  
    30    20    21 ar  
    31    20    31 1   
    32    21    22 ar  
    33    21    32 1   
    34    22    23 ar  
    35    22    33 1   
    36    23    24 ar  
    37    23    34 1   
    38    24    35 1   
@<TRIPOS>SUBSTRUCTURE
     1 L6Y         1 TEMP              0 ****  ****    0 ROOT
