@<TRIPOS>MOLECULE
L71
   34    35     1     0     0
SMALL
bcc


@<TRIPOS>ATOM
      1 C            0.0000     0.0000     0.0000 c3         1 L71      -0.012100
      2 N            2.0180     0.0000     1.3820 n          1 L71      -0.121400
      3 C1           1.5300     0.0000     0.0000 c3         1 L71       0.039000
      4 N1           5.7660     4.8760     5.7980 nz         1 L71       0.072400
      5 C2           2.2600    -1.1260     2.0640 c          1 L71       0.620500
      6 C3           2.7500    -0.7710     3.4510 c3         1 L71      -0.116400
      7 C4           2.7490     0.7700     3.4510 c3         1 L71      -0.095400
      8 C5           2.2650     1.1260     2.0630 c          1 L71       0.631500
      9 C6           4.1420     1.3010     3.6740 ca         1 L71      -0.051300
     10 C7           5.1520     0.9850     2.7850 ca         1 L71      -0.053000
     11 C8           6.4300     1.4720     2.9880 ca         1 L71      -0.072000
     12 C9           6.6980     2.2750     4.0820 ca         1 L71      -0.052000
     13 C10          5.6870     2.5920     4.9700 ca         1 L71      -0.209300
     14 C11          5.9790     3.4680     6.1610 c3         1 L71       0.040100
     15 C12          4.4090     2.1090     4.7630 ca         1 L71      -0.057000
     16 H           -0.3610    -0.8210     0.6080 hc         1 L71       0.017700
     17 HA          -0.3610     0.9370     0.4070 hc         1 L71       0.017700
     18 HB          -0.3610    -0.1160    -1.0150 hc         1 L71       0.017700
     19 H1           1.8910     0.8840    -0.5110 h1         1 L71       0.044200
     20 H1A          1.8910    -0.8840    -0.5110 h1         1 L71       0.044200
     21 HN1          4.7860     5.0510     5.6980 hn         1 L71       0.224800
     22 HN1A         6.1390     5.4660     6.5160 hn         1 L71       0.224800
     23 H3           3.7520    -1.1510     3.6080 hc         1 L71       0.060200
     24 H3A          2.0690    -1.1510     4.2030 hc         1 L71       0.060200
     25 H4           2.0650     1.1490     4.2010 hc         1 L71       0.064700
     26 H7           4.9420     0.3560     1.9290 ha         1 L71       0.126000
     27 H8           7.0880     1.1230     2.2010 ha         1 L71       0.133000
     28 H9           7.6990     2.6570     4.2410 ha         1 L71       0.110000
     29 H11          7.0070     3.3260     6.4710 hx         1 L71       0.082200
     30 H11A         5.3170     3.2010     6.9760 hx         1 L71       0.082200
     31 H12          3.6170     2.3570     5.4600 ha         1 L71       0.112000
     32 O            2.1100    -2.2510     1.6390 o          1 L71      -0.588500
     33 O1           2.1190     2.2510     1.6360 o          1 L71      -0.619500
     34 H13          6.1890     5.0590     4.9090 hn         1 L71       0.224800
@<TRIPOS>BOND
     1     1     3 1   
     2     1    16 1   
     3     1    17 1   
     4     1    18 1   
     5     2     3 1   
     6     2     5 1   
     7     2     8 1   
     8     3    19 1   
     9     3    20 1   
    10     4    14 1   
    11     4    21 1   
    12     4    22 1   
    13     4    34 1   
    14     5     6 1   
    15     5    32 2   
    16     6     7 1   
    17     6    23 1   
    18     6    24 1   
    19     7     8 1   
    20     7     9 1   
    21     7    25 1   
    22     8    33 2   
    23     9    10 ar  
    24     9    15 ar  
    25    10    11 ar  
    26    10    26 1   
    27    11    12 ar  
    28    11    27 1   
    29    12    13 ar  
    30    12    28 1   
    31    13    14 1   
    32    13    15 ar  
    33    14    29 1   
    34    14    30 1   
    35    15    31 1   
@<TRIPOS>SUBSTRUCTURE
     1 L71         1 TEMP              0 ****  ****    0 ROOT
