@<TRIPOS>MOLECULE
molecule
   34    35     1     0     0
SMALL
bcc


@<TRIPOS>ATOM
      1 C            0.0000     0.0000     0.0000 c3         1 L71      -0.112100
      2 N            2.0180     0.0000     1.3820 n          1 L71      -0.486400
      3 C1           1.5300     0.0000     0.0000 c3         1 L71       0.094000
      4 N1           5.7660     4.8760     5.7980 nz         1 L71      -0.811600
      5 C2           2.2600    -1.1260     2.0640 c          1 L71       0.698500
      6 C3           2.7500    -0.7710     3.4510 c3         1 L71      -0.171400
      7 C4           2.7490     0.7700     3.4510 c3         1 L71      -0.130400
      8 C5           2.2650     1.1260     2.0630 c          1 L71       0.709500
      9 C6           4.1420     1.3010     3.6740 ca         1 L71      -0.054300
     10 C7           5.1520     0.9850     2.7850 ca         1 L71      -0.081000
     11 C8           6.4300     1.4720     2.9880 ca         1 L71      -0.108000
     12 C9           6.6980     2.2750     4.0820 ca         1 L71      -0.088000
     13 C10          5.6870     2.5920     4.9700 ca         1 L71      -0.193300
     14 C11          5.9790     3.4680     6.1610 c3         1 L71       0.162100
     15 C12          4.4090     2.1090     4.7630 ca         1 L71      -0.089000
     16 H           -0.3610    -0.8210     0.6080 hc         1 L71       0.052367
     17 HA          -0.3610     0.9370     0.4070 hc         1 L71       0.052367
     18 HB          -0.3610    -0.1160    -1.0150 hc         1 L71       0.052367
     19 H1           1.8910     0.8840    -0.5110 h1         1 L71       0.075200
     20 H1A          1.8910    -0.8840    -0.5110 h1         1 L71       0.075200
     21 HN1          4.7860     5.0510     5.6980 hn         1 L71       0.456467
     22 HN1A         6.1390     5.4660     6.5160 hn         1 L71       0.456467
     23 H3           3.7520    -1.1510     3.6080 hc         1 L71       0.095700
     24 H3A          2.0690    -1.1510     4.2030 hc         1 L71       0.095700
     25 H4           2.0650     1.1490     4.2010 hc         1 L71       0.098700
     26 H7           4.9420     0.3560     1.9290 ha         1 L71       0.161000
     27 H8           7.0880     1.1230     2.2010 ha         1 L71       0.168000
     28 H9           7.6990     2.6570     4.2410 ha         1 L71       0.140000
     29 H11          7.0070     3.3260     6.4710 hx         1 L71       0.112700
     30 H11A         5.3170     3.2010     6.9760 hx         1 L71       0.112700
     31 H12          3.6170     2.3570     5.4600 ha         1 L71       0.138000
     32 O            2.1100    -2.2510     1.6390 o          1 L71      -0.554500
     33 O1           2.1190     2.2510     1.6360 o          1 L71      -0.580500
     34 H13          6.1890     5.0590     4.9090 hn         1 L71       0.456467
@<TRIPOS>BOND
     1     1     3 1
     2     2     3 1
     3     2     5 1
     4     2     8 1
     5    32     5 2
     6     4    14 1
     7    33     8 2
     8     5     6 1
     9     6     7 1
    10     7     8 1
    11     7     9 1
    12     9    10 ar
    13     9    15 ar
    14    10    11 ar
    15    11    12 ar
    16    12    13 ar
    17    13    14 1
    18    13    15 ar
    19     1    16 1
    20     1    17 1
    21     1    18 1
    22     3    19 1
    23     3    20 1
    24     4    21 1
    25     4    22 1
    26     6    23 1
    27     6    24 1
    28     7    25 1
    29    10    26 1
    30    11    27 1
    31    12    28 1
    32    14    29 1
    33    14    30 1
    34    15    31 1
    35    34     4 1
@<TRIPOS>SUBSTRUCTURE
     1 L71         1 TEMP              0 ****  ****    0 ROOT
