@<TRIPOS>MOLECULE
molecule
   68    71     1     0     0
SMALL
bcc


@<TRIPOS>ATOM
      1 F7           0.0000     0.0000     0.0000 f          1 L76      -0.141900
      2 C11          1.3510     0.0000     0.0000 ca         1 L76       0.137900
      3 C10          2.0440     0.0000     1.1990 ca         1 L76      -0.175000
      4 C9           3.4260    -0.0010     1.1980 ca         1 L76      -0.081000
      5 C12          2.0440    -0.0070    -1.1990 ca         1 L76      -0.175000
      6 C13          3.4260    -0.0080    -1.1970 ca         1 L76      -0.081000
      7 C8           4.1170    -0.0020     0.0010 ca         1 L76      -0.108300
      8 C1           5.6240    -0.0030     0.0010 c3         1 L76       0.205800
      9 N1           6.1150    -0.8880     1.0670 n3         1 L76      -0.723600
     10 C5           5.5980    -2.2530     0.8980 c3         1 L76       0.144500
     11 C6           5.9130    -3.0660     2.1260 cc         1 L76       0.301600
     12 C7           5.1400    -3.2000     3.2290 cd         1 L76      -0.225900
     13 C24          3.7930    -2.5700     3.4720 c3         1 L76       0.232100
     14 N5           2.7570    -3.3440     2.7750 n3         1 L76      -0.726600
     15 C26          2.6230    -4.6870     3.3550 c3         1 L76       0.146100
     16 C25          1.4700    -2.6350     2.7900 c3         1 L76       0.146100
     17 N4           5.8190    -4.0160     4.0680 na         1 L76       0.016400
     18 N3           6.9260    -4.3460     3.5020 nd         1 L76      -0.199800
     19 N2           7.0110    -3.8000     2.3410 nc         1 L76      -0.370000
     20 C4           7.5840    -0.8820     1.1150 c3         1 L76       0.124800
     21 C3           8.0760     0.5480     1.3510 c3         1 L76       0.133400
     22 O1           7.5630     1.4000     0.3220 os         1 L76      -0.442600
     23 C2           6.1360     1.4180     0.2490 c3         1 L76       0.348900
     24 O2           5.6010     1.9110     1.4790 os         1 L76      -0.426600
     25 C14          5.8350     3.3020     1.6990 c3         1 L76       0.192400
     26 C21          7.1590     3.4860     2.4430 c3         1 L76      -0.116100
     27 C15          4.7130     3.8760     2.5250 ca         1 L76      -0.091300
     28 C20          4.1880     3.1510     3.5770 ca         1 L76      -0.037000
     29 C19          3.1610     3.6790     4.3380 ca         1 L76      -0.189300
     30 C23          2.5890     2.8880     5.4850 c3         1 L76       0.677700
     31 F6           2.0680     1.6820     5.0070 f          1 L76      -0.221133
     32 F5           3.5980     2.6220     6.4170 f          1 L76      -0.221133
     33 F4           1.5710     3.6260     6.0990 f          1 L76      -0.221133
     34 C18          2.6600     4.9340     4.0460 ca         1 L76      -0.040000
     35 C17          3.1840     5.6590     2.9920 ca         1 L76      -0.189300
     36 C16          4.2110     5.1310     2.2320 ca         1 L76      -0.037000
     37 C22          2.6380     7.0270     2.6740 c3         1 L76       0.677700
     38 F1           3.6610     7.9750     2.7810 f          1 L76      -0.221133
     39 F2           2.1310     7.0340     1.3690 f          1 L76      -0.221133
     40 F3           1.6150     7.3420     3.5740 f          1 L76      -0.221133
     41 H1           1.5030     0.0010     2.1370 ha         1 L76       0.145500
     42 H2           3.9680     0.0020     2.1360 ha         1 L76       0.147500
     43 H3           1.5030    -0.0120    -2.1380 ha         1 L76       0.145500
     44 H4           3.9690    -0.0120    -2.1350 ha         1 L76       0.147500
     45 H5           5.9900    -0.3550    -0.9560 h1         1 L76       0.053700
     46 H7           4.5250    -2.2180     0.7530 h1         1 L76       0.063200
     47 H8           6.0640    -2.7110     0.0330 h1         1 L76       0.063200
     48 H9           3.7970    -1.5530     3.0980 h1         1 L76       0.052700
     49 H10          3.5840    -2.5620     4.5350 h1         1 L76       0.052700
     50 H12          2.6130    -4.6150     4.4360 h1         1 L76       0.036367
     51 H13          3.4600    -5.3000     3.0430 h1         1 L76       0.036367
     52 H14          1.6990    -5.1380     3.0140 h1         1 L76       0.036367
     53 H15          1.1200    -2.5010     1.7730 h1         1 L76       0.036367
     54 H16          1.5970    -1.6670     3.2580 h1         1 L76       0.036367
     55 H17          0.7450    -3.2140     3.3480 h1         1 L76       0.036367
     56 H18          5.5130    -4.3100     4.9750 hn         1 L76       0.333700
     57 H19          7.9760    -1.2480     0.1740 h1         1 L76       0.057200
     58 H20          7.9200    -1.5180     1.9250 h1         1 L76       0.057200
     59 H21          7.7250     0.8950     2.3160 h1         1 L76       0.060200
     60 H22          9.1590     0.5650     1.3270 h1         1 L76       0.060200
     61 H23          5.8270     2.0590    -0.5680 h2         1 L76       0.077700
     62 H24          5.8820     3.8160     0.7470 h1         1 L76       0.049700
     63 H25          7.3270     2.6380     3.0970 hc         1 L76       0.050700
     64 H26          7.9690     3.5540     1.7270 hc         1 L76       0.050700
     65 H27          7.1200     4.3940     3.0320 hc         1 L76       0.050700
     66 H28          4.6190     2.1940     3.8430 ha         1 L76       0.156500
     67 H29          1.8550     5.3480     4.6420 ha         1 L76       0.169000
     68 H30          4.6210     5.6990     1.4070 ha         1 L76       0.156500
@<TRIPOS>BOND
     1    31    30 1
     2    30    33 1
     3    30    29 1
     4    30    32 1
     5    29    34 ar
     6    29    28 ar
     7    34    35 ar
     8    28    27 ar
     9    38    37 1
    10    35    37 1
    11    35    36 ar
    12    39    37 1
    13    27    36 ar
    14    27    25 1
    15    37    40 1
    16    26    25 1
    17    25    24 1
    18    24    23 1
    19    23    22 1
    20    23     8 1
    21    22    21 1
    22     5     6 ar
    23     5     2 ar
    24     6     7 ar
    25     2     1 1
    26     2     3 ar
    27     7     8 1
    28     7     4 ar
    29     8     9 1
    30    21    20 1
    31     3     4 ar
    32     9    20 1
    33     9    10 1
    34    19    18 2
    35    19    11 1
    36    18    17 1
    37    10    11 1
    38    11    12 2
    39    17    12 1
    40    12    13 1
    41    13    14 1
    42    14    16 1
    43    14    15 1
    44     3    41 1
    45     4    42 1
    46     5    43 1
    47     6    44 1
    48     8    45 1
    49    10    46 1
    50    10    47 1
    51    13    48 1
    52    13    49 1
    53    15    50 1
    54    15    51 1
    55    15    52 1
    56    16    53 1
    57    16    54 1
    58    16    55 1
    59    17    56 1
    60    20    57 1
    61    20    58 1
    62    21    59 1
    63    21    60 1
    64    23    61 1
    65    25    62 1
    66    26    63 1
    67    26    64 1
    68    26    65 1
    69    28    66 1
    70    34    67 1
    71    36    68 1
@<TRIPOS>SUBSTRUCTURE
     1 L76         1 TEMP              0 ****  ****    0 ROOT
