@<TRIPOS>MOLECULE
L79
   57    60     1     0     0
SMALL
bcc


@<TRIPOS>ATOM
      1 C           0.2500   -0.6330    0.2850 c3        1 L79     -0.095400
      2 C1          1.6630   -0.0640    0.4850 c3        1 L79      0.179300
      3 O           2.0110   -0.2450    1.8760 os        1 L79     -0.418600
      4 C2          0.8510   -0.5880    2.6400 c3        1 L79      0.172300
      5 C3         -0.1880   -1.1640    1.6550 c3        1 L79     -0.042500
      6 C4          1.7440    1.3740    0.1060 c2        1 L79     -0.232200
      7 C5          2.2460    1.8000   -1.0540 ce        1 L79     -0.182200
      8 C6          2.2850    3.2570   -1.4630 c         1 L79      0.892800
      9 O1          2.8530    3.5270   -2.5620 o         1 L79     -0.838300
     10 O7          1.7550    4.1250   -0.7120 o         1 L79     -0.838300
     11 C8         -1.6070   -0.8270    1.9700 ce        1 L79     -0.061400
     12 C9         -1.9310    0.1400    2.8550 cf        1 L79     -0.114000
     13 C10        -0.9150    0.8990    3.5500 cf        1 L79     -0.150000
     14 C11         0.3840    0.5890    3.4300 c2        1 L79     -0.144200
     15 C12        -2.6430   -1.5740    1.2540 ca        1 L79     -0.039800
     16 C13        -3.6570   -0.8880    0.5780 ca        1 L79     -0.117000
     17 C14        -4.6680   -1.5670   -0.1170 ca        1 L79     -0.059300
     18 C15        -5.6940   -0.7450   -0.8510 c3        1 L79     -0.004700
     19 C16        -6.5170   -1.6090   -1.8070 c3        1 L79     -0.069400
     20 C17        -5.0080    0.3370   -1.6860 c3        1 L79     -0.085600
     21 C18        -6.6150   -0.0690    0.1610 c3        1 L79     -0.085600
     22 C19        -4.6880   -2.9710   -0.1000 ca        1 L79     -0.067300
     23 C20        -5.7570   -3.7830   -0.7800 c3        1 L79     -0.003700
     24 C21        -6.2800   -4.8690    0.1610 c3        1 L79     -0.083600
     25 C22        -6.9470   -2.9100   -1.1790 c3        1 L79     -0.068400
     26 C23        -5.1680   -4.4540   -2.0180 c3        1 L79     -0.083600
     27 C24        -3.6610   -3.6550    0.5700 ca        1 L79     -0.135000
     28 C25        -2.6490   -2.9750    1.2360 ca        1 L79     -0.124000
     29 H1A         0.2580   -1.4520   -0.4730 hc        1 L79      0.059200
     30 H2A        -0.4430    0.1670   -0.0760 hc        1 L79      0.059200
     31 H1          2.4260   -0.6760   -0.0730 h1        1 L79      0.050700
     32 H2          1.2040   -1.3820    3.3600 h1        1 L79      0.053700
     33 H3         -0.0790   -2.2850    1.6630 hc        1 L79      0.050700
     34 H4          1.3490    2.0900    0.8450 ha        1 L79      0.147000
     35 H5          2.6640    1.1070   -1.8000 ha        1 L79      0.095000
     36 H9         -2.9820    0.3890    3.0660 ha        1 L79      0.123000
     37 H10        -1.2540    1.7510    4.1580 ha        1 L79      0.125000
     38 H11         1.1820    1.1820    3.9020 ha        1 L79      0.142000
     39 H13        -3.6460    0.2140    0.5880 ha        1 L79      0.144000
     40 H161       -7.4230   -1.0320   -2.1310 hc        1 L79      0.042200
     41 H162       -5.9090   -1.8190   -2.7270 hc        1 L79      0.042200
     42 H171       -5.7490    0.8070   -2.3770 hc        1 L79      0.037867
     43 H172       -4.1820   -0.1050   -2.2920 hc        1 L79      0.037867
     44 H173       -4.5830    1.1360   -1.0350 hc        1 L79      0.037867
     45 H181       -7.3490    0.5850   -0.3690 hc        1 L79      0.037867
     46 H182       -7.1740   -0.8300    0.7540 hc        1 L79      0.037867
     47 H183       -6.0170    0.5600    0.8630 hc        1 L79      0.037867
     48 H211       -5.5170   -5.6690    0.3100 hc        1 L79      0.034533
     49 H212       -6.5370   -4.4300    1.1540 hc        1 L79      0.034533
     50 H213       -7.1960   -5.3370   -0.2750 hc        1 L79      0.034533
     51 H221       -7.5920   -3.4800   -1.8990 hc        1 L79      0.038200
     52 H222       -7.5690   -2.7000   -0.2680 hc        1 L79      0.038200
     53 H231       -4.2970   -5.0910   -1.7320 hc        1 L79      0.034533
     54 H232       -5.9380   -5.0960   -2.5080 hc        1 L79      0.034533
     55 H233       -4.8190   -3.6870   -2.7510 hc        1 L79      0.034533
     56 H24        -3.6510   -4.7550    0.5670 ha        1 L79      0.124000
     57 H25        -1.8590   -3.5370    1.7540 ha        1 L79      0.131000
@<TRIPOS>BOND
     1    1    2 1   
     2    1    5 1   
     3    1   29 1   
     4    1   30 1   
     5    2    3 1   
     6    2    6 1   
     7    2   31 1   
     8    3    4 1   
     9    4    5 1   
    10    4   14 1   
    11    4   32 1   
    12    5   11 1   
    13    5   33 1   
    14    6    7 2   
    15    6   34 1   
    16    7    8 1   
    17    7   35 1   
    18    8    9 1   
    19    8   10 1   
    20   11   12 2   
    21   11   15 1   
    22   12   13 1   
    23   12   36 1   
    24   13   14 2   
    25   13   37 1   
    26   14   38 1   
    27   15   16 ar  
    28   15   28 ar  
    29   16   17 ar  
    30   16   39 1   
    31   17   18 1   
    32   17   22 ar  
    33   18   19 1   
    34   18   20 1   
    35   18   21 1   
    36   19   25 1   
    37   19   40 1   
    38   19   41 1   
    39   20   42 1   
    40   20   43 1   
    41   20   44 1   
    42   21   45 1   
    43   21   46 1   
    44   21   47 1   
    45   22   23 1   
    46   22   27 ar  
    47   23   24 1   
    48   23   25 1   
    49   23   26 1   
    50   24   48 1   
    51   24   49 1   
    52   24   50 1   
    53   25   51 1   
    54   25   52 1   
    55   26   53 1   
    56   26   54 1   
    57   26   55 1   
    58   27   28 ar  
    59   27   56 1   
    60   28   57 1   
@<TRIPOS>SUBSTRUCTURE
     1 L79         1 TEMP              0 ****  ****    0 ROOT
