@<TRIPOS>MOLECULE
molecule
   57    60     1     0     0
SMALL
bcc


@<TRIPOS>ATOM
      1 C            0.0000     0.0000     0.0000 c3         1 L79      -0.094400
      2 C1           1.5530     0.0000     0.0000 c3         1 L79       0.175300
      3 O            1.9270     0.0000     1.3880 os         1 L79      -0.404600
      4 C2           0.8480    -0.5320     2.1890 c3         1 L79       0.178300
      5 C3          -0.2620    -0.9320     1.2140 c3         1 L79      -0.059500
      6 C4           2.0790     1.2360    -0.6840 c2         1 L79      -0.244200
      7 C5           2.8850     2.0670    -0.0280 ce         1 L79      -0.147200
      8 C6           3.3980     3.2720    -0.6940 c          1 L79       0.867800
      9 O1           4.2150     4.1140    -0.0300 o          1 L79      -0.846800
     10 O7           3.0840     3.5100    -1.8450 o          1 L79      -0.846800
     11 C8          -1.6370    -0.7690     1.7490 ce         1 L79      -0.066400
     12 C9          -1.9300     0.0540     2.7680 cf         1 L79      -0.117000
     13 C10         -0.8560     0.8350     3.3870 cf         1 L79      -0.159000
     14 C11          0.4100     0.5660     3.1170 c2         1 L79      -0.138200
     15 C12         -2.7270    -1.5500     1.1400 ca         1 L79      -0.044800
     16 C13         -3.7640    -0.9060     0.4660 ca         1 L79      -0.113000
     17 C14         -4.7900    -1.6380    -0.1090 ca         1 L79      -0.063300
     18 C15         -5.8800    -0.8760    -0.8160 c3         1 L79      -0.017700
     19 C16         -6.6700    -1.8000    -1.7400 c3         1 L79      -0.070400
     20 C17         -5.2550     0.2490    -1.6440 c3         1 L79      -0.081600
     21 C18         -6.8280    -0.2710     0.2220 c3         1 L79      -0.081600
     22 C19         -4.7860    -3.0130    -0.0170 ca         1 L79      -0.070300
     23 C20         -5.8660    -3.8690    -0.6290 c3         1 L79      -0.016700
     24 C21         -6.2400    -4.9840     0.3500 c3         1 L79      -0.080100
     25 C22         -7.1060    -3.0310    -0.9350 c3         1 L79      -0.070400
     26 C23         -5.3440    -4.4900    -1.9260 c3         1 L79      -0.080100
     27 C24         -3.7550    -3.6620     0.6540 ca         1 L79      -0.132000
     28 C25         -2.7310    -2.9450     1.2320 ca         1 L79      -0.123000
     29 H1A         -0.3910     0.9940     0.1780 hc         1 L79       0.062700
     30 H2A         -0.3910    -0.4290    -0.9140 hc         1 L79       0.062700
     31 H1           1.9270    -0.8930    -0.4870 h1         1 L79       0.035700
     32 H2           1.1850    -1.3930     2.7530 h1         1 L79       0.055700
     33 H3          -0.1170    -1.9620     0.9110 hc         1 L79       0.057700
     34 H4           1.8010     1.4480    -1.7090 ha         1 L79       0.150000
     35 H5           3.1630     1.8550     0.9980 ha         1 L79       0.119000
     36 H9          -2.9070     0.0110     3.2350 ha         1 L79       0.126000
     37 H10         -1.1000     1.6370     4.0720 ha         1 L79       0.126000
     38 H11          1.1740     1.1690     3.5920 ha         1 L79       0.141000
     39 H13         -3.7700     0.1750     0.3970 ha         1 L79       0.143000
     40 H161        -6.0430    -2.1090    -2.5680 hc         1 L79       0.044700
     41 H162        -7.5450    -1.2800    -2.1120 hc         1 L79       0.044700
     42 H171        -4.4000    -0.1340    -2.1860 hc         1 L79       0.037200
     43 H172        -5.9870     0.6310    -2.3450 hc         1 L79       0.037200
     44 H173        -4.9360     1.0480    -0.9850 hc         1 L79       0.037200
     45 H181        -6.4360     0.6810     0.5570 hc         1 L79       0.037200
     46 H182        -7.8040    -0.1240    -0.2240 hc         1 L79       0.037200
     47 H183        -6.9140    -0.9440     1.0670 hc         1 L79       0.037200
     48 H211        -7.1730    -5.4390     0.0390 hc         1 L79       0.035033
     49 H212        -6.3550    -4.5680     1.3440 hc         1 L79       0.035033
     50 H213        -5.4590    -5.7340     0.3590 hc         1 L79       0.035033
     51 H221        -7.8060    -3.6170    -1.5180 hc         1 L79       0.042200
     52 H222        -7.5690    -2.7150    -0.0090 hc         1 L79       0.042200
     53 H231        -4.7650    -5.3750    -1.6940 hc         1 L79       0.035033
     54 H232        -4.7170    -3.7730    -2.4430 hc         1 L79       0.035033
     55 H233        -6.1800    -4.7610    -2.5590 hc         1 L79       0.035033
     56 H24         -3.7580    -4.7430     0.7250 ha         1 L79       0.126000
     57 H25         -1.8760    -3.4630     1.6500 ha         1 L79       0.132000
@<TRIPOS>BOND
     1     1     2 1
     2     1     5 1
     3     1    29 1
     4     1    30 1
     5     2     3 1
     6     2     6 1
     7     2    31 1
     8     3     4 1
     9     4     5 1
    10     4    14 1
    11     4    32 1
    12     5    11 1
    13     5    33 1
    14     6     7 2
    15     6    34 1
    16     7     8 1
    17     7    35 1
    18     8     9 1
    19     8    10 1
    20    11    12 2
    21    11    15 1
    22    12    13 1
    23    12    36 1
    24    13    14 2
    25    13    37 1
    26    14    38 1
    27    15    16 ar
    28    15    28 ar
    29    16    17 ar
    30    16    39 1
    31    17    18 1
    32    17    22 ar
    33    18    19 1
    34    18    20 1
    35    18    21 1
    36    19    25 1
    37    19    40 1
    38    19    41 1
    39    20    42 1
    40    20    43 1
    41    20    44 1
    42    21    45 1
    43    21    46 1
    44    21    47 1
    45    22    23 1
    46    22    27 ar
    47    23    24 1
    48    23    25 1
    49    23    26 1
    50    24    48 1
    51    24    49 1
    52    24    50 1
    53    25    51 1
    54    25    52 1
    55    26    53 1
    56    26    54 1
    57    26    55 1
    58    27    28 ar
    59    27    56 1
    60    28    57 1
@<TRIPOS>SUBSTRUCTURE
     1 L79         1 TEMP              0 ****  ****    0 ROOT
