@<TRIPOS>MOLECULE
molecule
   35    37     1     0     0
SMALL
bcc


@<TRIPOS>ATOM
      1 C1           0.0000     0.0000     0.0000 ca         1 L7A      -0.141600
      2 N1          -7.0930    -3.6980    -5.3140 nb         1 L7A      -0.690000
      3 O1          -1.8210     2.1160    -2.9910 o          1 L7A      -0.624500
      4 C2           1.3960     0.0000     0.0000 ca         1 L7A      -0.084500
      5 N2          -2.0900     0.0050    -1.2760 ns         1 L7A      -0.481100
      6 O2          -0.1360     0.0120    -2.3330 o          1 L7A      -0.578100
      7 C3           2.0820     0.0000     1.1980 ca         1 L7A      -0.138500
      8 N3          -3.2800     1.3410    -4.4780 ns         1 L7A      -0.402100
      9 C4           1.3900    -0.0010     2.3950 ca         1 L7A      -0.105000
     10 C5           0.0060    -0.0020     2.4020 ca         1 L7A      -0.138500
     11 C6          -0.6920    -0.0020     1.2120 ca         1 L7A      -0.084500
     12 C7          -0.7420     0.0050    -1.2790 c          1 L7A       0.684700
     13 C8          -4.1530     0.3770    -4.8630 cc         1 L7A       0.016600
     14 C9          -4.3660    -0.7220    -4.0830 cd         1 L7A      -0.144200
     15 C10         -3.6710    -0.8600    -2.8610 cd         1 L7A      -0.059000
     16 C11         -2.7930     0.1160    -2.4820 cc         1 L7A      -0.052600
     17 C12         -2.6020     1.2370    -3.3200 c          1 L7A       0.683700
     18 C13         -7.3560    -2.9990    -4.2250 ca         1 L7A       0.420700
     19 C14         -6.0030    -3.4930    -6.0290 ca         1 L7A       0.420700
     20 C15         -5.0850    -2.5310    -5.6630 ca         1 L7A      -0.245800
     21 C16         -5.3240    -1.7670    -4.5150 ca         1 L7A      -0.002800
     22 C17         -6.4920    -2.0180    -3.7880 ca         1 L7A      -0.245800
     23 H2           1.9400     0.0010    -0.9370 ha         1 L7A       0.140500
     24 H3           3.1650     0.0000     1.2000 ha         1 L7A       0.134000
     25 H4           1.9340    -0.0010     3.3320 ha         1 L7A       0.132000
     26 H5          -0.5300    -0.0030     3.3430 ha         1 L7A       0.134000
     27 H6          -1.7750    -0.0020     1.2190 ha         1 L7A       0.140500
     28 H8          -4.6880     0.4810    -5.8000 h4         1 L7A       0.160000
     29 H10         -3.8310    -1.7280    -2.2330 ha         1 L7A       0.147000
     30 H13         -8.2630    -3.2000    -3.6680 h4         1 L7A       0.025600
     31 H14         -5.8260    -4.0900    -6.9160 h4         1 L7A       0.025600
     32 H15         -4.1920    -2.3680    -6.2550 ha         1 L7A       0.142500
     33 H17         -6.7140    -1.4490    -2.8940 ha         1 L7A       0.142500
     34 HN2         -2.5890    -0.0950    -0.4140 hn         1 L7A       0.325500
     35 HN3         -3.1370     2.1400    -5.0630 hn         1 L7A       0.343500
@<TRIPOS>BOND
     1     1     4 ar
     2     1    11 ar
     3     1    12 1
     4     2    18 ar
     5     2    19 ar
     6     3    17 2
     7     4     7 ar
     8     5    12 1
     9     5    16 1
    10     6    12 2
    11     7     9 ar
    12     8    13 1
    13     8    17 1
    14     9    10 ar
    15    10    11 ar
    16    13    14 2
    17    14    15 1
    18    14    21 1
    19    15    16 2
    20    16    17 1
    21    18    22 ar
    22    19    20 ar
    23    20    21 ar
    24    21    22 ar
    25     4    23 1
    26     7    24 1
    27     9    25 1
    28    10    26 1
    29    11    27 1
    30    13    28 1
    31    15    29 1
    32    18    30 1
    33    19    31 1
    34    20    32 1
    35    22    33 1
    36     5    34 1
    37     8    35 1
@<TRIPOS>SUBSTRUCTURE
     1 L7A         1 TEMP              0 ****  ****    0 ROOT
