@<TRIPOS>MOLECULE
L7A
   35    37     1     0     0
SMALL
bcc


@<TRIPOS>ATOM
      1 C1           0.0000     0.0000     0.0000 ca         1 L7A      -0.151600
      2 N1          -7.0930    -3.6980    -5.3140 nb         1 L7A      -0.583000
      3 O1          -1.8210     2.1160    -2.9910 o          1 L7A      -0.675500
      4 C2           1.3960     0.0000     0.0000 ca         1 L7A      -0.059000
      5 N2          -2.0900     0.0050    -1.2760 ns         1 L7A      -0.041100
      6 O2          -0.1360     0.0120    -2.3330 o          1 L7A      -0.620100
      7 C3           2.0820     0.0000     1.1980 ca         1 L7A      -0.111500
      8 N3          -3.2800     1.3410    -4.4780 ns         1 L7A       0.101900
      9 C4           1.3900    -0.0010     2.3950 ca         1 L7A      -0.079000
     10 C5           0.0060    -0.0020     2.4020 ca         1 L7A      -0.111500
     11 C6          -0.6920    -0.0020     1.2120 ca         1 L7A      -0.059000
     12 C7          -0.7420     0.0050    -1.2790 c          1 L7A       0.594700
     13 C8          -4.1530     0.3770    -4.8630 cc         1 L7A      -0.134400
     14 C9          -4.3660    -0.7220    -4.0830 cd         1 L7A      -0.130200
     15 C10         -3.6710    -0.8600    -2.8610 cd         1 L7A      -0.028000
     16 C11         -2.7930     0.1160    -2.4820 cc         1 L7A      -0.195600
     17 C12         -2.6020     1.2370    -3.3200 c          1 L7A       0.578700
     18 C13         -7.3560    -2.9990    -4.2250 ca         1 L7A       0.407700
     19 C14         -6.0030    -3.4930    -6.0290 ca         1 L7A       0.407700
     20 C15         -5.0850    -2.5310    -5.6630 ca         1 L7A      -0.216800
     21 C16         -5.3240    -1.7670    -4.5150 ca         1 L7A       0.001200
     22 C17         -6.4920    -2.0180    -3.7880 ca         1 L7A      -0.216800
     23 H2           1.9400     0.0010    -0.9370 ha         1 L7A       0.113000
     24 H3           3.1650     0.0000     1.2000 ha         1 L7A       0.105000
     25 H4           1.9340    -0.0010     3.3320 ha         1 L7A       0.102000
     26 H5          -0.5300    -0.0030     3.3430 ha         1 L7A       0.105000
     27 H6          -1.7750    -0.0020     1.2190 ha         1 L7A       0.113000
     28 H8          -4.6880     0.4810    -5.8000 h4         1 L7A       0.130000
     29 H10         -3.8310    -1.7280    -2.2330 ha         1 L7A       0.116000
     30 H13         -8.2630    -3.2000    -3.6680 h4         1 L7A      -0.019400
     31 H14         -5.8260    -4.0900    -6.9160 h4         1 L7A      -0.019400
     32 H15         -4.1920    -2.3680    -6.2550 ha         1 L7A       0.117500
     33 H17         -6.7140    -1.4490    -2.8940 ha         1 L7A       0.117500
     34 HN2         -2.5890    -0.0950    -0.4140 hn         1 L7A       0.170500
     35 HN3         -3.1370     2.1400    -5.0630 hn         1 L7A       0.172500
@<TRIPOS>BOND
     1     1     4 ar  
     2     1    11 ar  
     3     1    12 1   
     4     2    18 ar  
     5     2    19 ar  
     6     3    17 2   
     7     4     7 ar  
     8     4    23 1   
     9     5    12 1   
    10     5    16 1   
    11     5    34 1   
    12     6    12 2   
    13     7     9 ar  
    14     7    24 1   
    15     8    13 1   
    16     8    17 1   
    17     8    35 1   
    18     9    10 ar  
    19     9    25 1   
    20    10    11 ar  
    21    10    26 1   
    22    11    27 1   
    23    13    14 2   
    24    13    28 1   
    25    14    15 1   
    26    14    21 1   
    27    15    16 2   
    28    15    29 1   
    29    16    17 1   
    30    18    22 ar  
    31    18    30 1   
    32    19    20 ar  
    33    19    31 1   
    34    20    21 ar  
    35    20    32 1   
    36    21    22 ar  
    37    22    33 1   
@<TRIPOS>SUBSTRUCTURE
     1 L7A         1 TEMP              0 ****  ****    0 ROOT
