@<TRIPOS>MOLECULE
L7G
   67    69     1     0     0
SMALL
bcc


@<TRIPOS>ATOM
      1 C1          3.0790   -1.1520   -0.1760 c3        1 L7G      0.047900
      2 C2          2.5370   -1.2500    1.2320 c3        1 L7G     -0.062200
      3 C3          1.6170   -0.1430    1.5810 c2        1 L7G     -0.154200
      4 C4          1.3800    0.4250    2.7640 c2        1 L7G     -0.184200
      5 C5          1.9490    0.2190    4.1440 c3        1 L7G      0.149900
      6 C6          1.8610   -2.2440    4.6350 c         1 L7G      0.649100
      7 C7          1.2450   -3.3850    5.4830 c3        1 L7G      0.055500
      8 C8         -0.1140   -3.8540    4.9190 c3        1 L7G     -0.086700
      9 C9         -1.1490   -2.7590    4.8190 c3        1 L7G     -0.110600
     10 C10         0.1170   -4.5030    3.5680 c3        1 L7G     -0.110600
     11 C11         1.4300   -4.2720    7.8370 c         1 L7G      0.544100
     12 C12         2.8740   -4.7980    7.9540 c3        1 L7G      0.094200
     13 C13         2.8670   -6.1660    7.2470 c3        1 L7G     -0.102100
     14 C14         3.2020   -5.0090    9.4620 c3        1 L7G     -0.100300
     15 C15         4.7780   -3.5180    8.2000 ce        1 L7G      0.482800
     16 C16         5.8210   -2.5710    7.7790 ca        1 L7G     -0.103900
     17 C17         7.1130   -2.9800    7.4510 ca        1 L7G     -0.151300
     18 C18         7.9990   -2.0130    6.9120 ca        1 L7G      0.429200
     19 C19         6.4130   -0.3440    7.0690 ca        1 L7G      0.310600
     20 C20         5.4680   -1.2190    7.6240 ca        1 L7G     -0.196300
     21 C21         6.0440    1.1050    6.8970 c3        1 L7G      0.073500
     22 C22         3.9720    0.8320    5.4860 c         1 L7G      0.545100
     23 C23         3.4890    0.3630    4.1390 c3        1 L7G     -0.173400
     24 N1          1.4590   -0.9410    4.8690 n         1 L7G     -0.561900
     25 N2          1.1650   -3.0560    6.9450 n4        1 L7G     -0.672800
     26 N3          3.8290   -3.8620    7.3600 n2        1 L7G     -0.680900
     27 N4          7.6600   -0.7360    6.6900 nb        1 L7G     -0.623000
     28 N5          5.3920    1.3430    5.5600 n4        1 L7G     -0.674800
     29 O1          2.7500   -2.5350    3.8170 o         1 L7G     -0.574100
     30 O2          0.4360   -4.7250    8.3720 o         1 L7G     -0.374100
     31 O3          3.3270    0.8390    6.5250 o         1 L7G     -0.419100
     32 S1          2.1000   -1.6570   -1.5510 s4        1 L7G     -0.232300
     33 S2          4.7290   -4.1400    9.7880 ss        1 L7G     -0.006300
     34 H1          4.0160   -1.7800   -0.2430 h1        1 L7G      0.149200
     35 H2          3.3900   -0.0900   -0.3900 h1        1 L7G      0.149200
     36 H3          2.0130   -2.2360    1.3880 hc        1 L7G      0.094200
     37 H4          3.4160   -1.2660    1.9390 hc        1 L7G      0.094200
     38 H5          1.0380    0.2530    0.7210 ha        1 L7G      0.133000
     39 H6          0.6130    1.2320    2.7780 ha        1 L7G      0.168000
     40 H7          1.5600    1.1000    4.7610 h1        1 L7G      0.100700
     41 H8          1.9820   -4.2480    5.3740 hx        1 L7G      0.155700
     42 H9         -0.5120   -4.6520    5.6180 hc        1 L7G      0.098700
     43 H10        -1.2420   -2.1710    5.7640 hc        1 L7G      0.060533
     44 H11        -2.1520   -3.2200    4.6160 hc        1 L7G      0.060533
     45 H12        -0.9260   -2.0630    3.9740 hc        1 L7G      0.060533
     46 H13        -0.8660   -4.8120    3.1310 hc        1 L7G      0.060533
     47 H14         0.6160   -3.7910    2.8670 hc        1 L7G      0.060533
     48 H15         0.7580   -5.4130    3.6680 hc        1 L7G      0.060533
     49 H16         2.6760   -6.0610    6.1520 hc        1 L7G      0.083700
     50 H17         2.0790   -6.8170    7.7020 hc        1 L7G      0.083700
     51 H18         3.8620   -6.6610    7.3830 hc        1 L7G      0.083700
     52 H19         3.3390   -6.0980    9.6870 h1        1 L7G      0.133200
     53 H20         2.3970   -4.6320   10.1370 h1        1 L7G      0.133200
     54 H22         7.4500   -4.0210    7.5850 ha        1 L7G      0.192000
     55 H23         9.0390   -2.2920    6.6360 h4        1 L7G      0.078100
     56 H24         4.4800   -0.8530    7.9380 ha        1 L7G      0.151000
     57 H25         6.9610    1.7700    6.9450 hx        1 L7G      0.143200
     58 H26         5.3210    1.4230    7.7050 hx        1 L7G      0.143200
     59 H27         3.7660    1.1090    3.3450 hc        1 L7G      0.124200
     60 H28         3.9900   -0.6180    3.9000 hc        1 L7G      0.124200
     61 H29         0.5400   -0.8120    5.2420 hn        1 L7G      0.333500
     62 H30         1.8500   -2.3300    7.1770 hn        1 L7G      0.460800
     63 H33         5.9580    0.8960    4.8290 hn        1 L7G      0.473800
     64 H34         0.9950   -0.9720   -1.3130 hs        1 L7G      0.396000
     65 H121        1.6230   -2.7980   -1.0820 hs        1 L7G      0.396000
     66 H221        0.2220   -2.6980    7.1590 hn        1 L7G      0.460800
     67 H52         5.3770    2.3590    5.3890 hn        1 L7G      0.473800
@<TRIPOS>BOND
     1    1    2 1   
     2    1   32 1   
     3    1   34 1   
     4    1   35 1   
     5    2    3 1   
     6    2   36 1   
     7    2   37 1   
     8    3    4 2   
     9    3   38 1   
    10    4    5 1   
    11    4   39 1   
    12    5   23 1   
    13    5   24 1   
    14    5   40 1   
    15    6    7 1   
    16    6   24 1   
    17    6   29 2   
    18    7    8 1   
    19    7   25 1   
    20    7   41 1   
    21    8    9 1   
    22    8   10 1   
    23    8   42 1   
    24    9   43 1   
    25    9   44 1   
    26    9   45 1   
    27   10   46 1   
    28   10   47 1   
    29   10   48 1   
    30   11   12 1   
    31   11   25 1   
    32   11   30 2   
    33   12   13 1   
    34   12   14 1   
    35   12   26 1   
    36   13   49 1   
    37   13   50 1   
    38   13   51 1   
    39   14   33 1   
    40   14   52 1   
    41   14   53 1   
    42   15   16 1   
    43   15   26 2   
    44   15   33 1   
    45   16   17 ar  
    46   16   20 ar  
    47   17   18 ar  
    48   17   54 1   
    49   18   27 ar  
    50   18   55 1   
    51   19   20 ar  
    52   19   21 1   
    53   19   27 ar  
    54   20   56 1   
    55   21   28 1   
    56   21   57 1   
    57   21   58 1   
    58   22   23 1   
    59   22   28 1   
    60   22   31 2   
    61   23   59 1   
    62   23   60 1   
    63   24   61 1   
    64   25   62 1   
    65   25   66 1   
    66   28   63 1   
    67   28   67 1   
    68   32   64 1   
    69   32   65 1   
@<TRIPOS>SUBSTRUCTURE
     1 L7G         1 TEMP              0 ****  ****    0 ROOT
