@<TRIPOS>MOLECULE
molecule
   83    87     1     0     0
SMALL
bcc


@<TRIPOS>ATOM
      1 CAA          0.0000     0.0000     0.0000 cc         1 L7M      -0.134400
      2 CAB         -0.8950     0.0060    -1.2120 c3         1 L7M      -0.075200
      3 CAC         -1.1870     1.4290    -1.6140 c          1 L7M       0.654100
      4 CAE          1.3400     0.0000     0.0000 cd         1 L7M       0.022400
      5 CAG          0.7420    -0.0050     2.1740 ca         1 L7M      -0.014400
      6 CAH         -0.4320     0.0000     1.4020 ca         1 L7M      -0.040800
      7 CAI          3.1090    -0.0000     1.6460 c          1 L7M       0.711700
      8 CAJ          0.6510    -0.0060     3.5600 ca         1 L7M      -0.097000
      9 CAK         -0.5850    -0.0020     4.1700 ca         1 L7M      -0.194000
     10 CAL         -1.7490     0.0040     3.4090 ca         1 L7M       0.120100
     11 CAM         -1.6790     0.0050     2.0280 ca         1 L7M      -0.121000
     12 CAP          3.8500     1.2730     1.7350 ca         1 L7M      -0.185600
     13 CAQ          5.2230     1.2690     1.9940 ca         1 L7M      -0.061000
     14 CAR          5.9090     2.4620     2.0750 ca         1 L7M      -0.140000
     15 CAS          5.2410     3.6620     1.9020 ca         1 L7M       0.060400
     16 CAT          3.8800     3.6730     1.6450 ca         1 L7M      -0.140000
     17 CAU          3.1840     2.4870     1.5550 ca         1 L7M      -0.061000
     18 CAW         -2.2570     3.0640    -3.0710 c3         1 L7M       0.114000
     19 CAX         -3.1640     3.0700    -4.3020 c3         1 L7M      -0.100400
     20 CAY         -3.4610     4.5140    -4.7100 c3         1 L7M      -0.087400
     21 CAZ         -4.3700     4.5200    -5.9410 c3         1 L7M       0.234800
     22 CBC         -6.8530     5.4770    -7.9310 ca         1 L7M      -0.316500
     23 CBF         -7.8920     5.9120    -7.0890 ca         1 L7M       0.049000
     24 CBG         -9.1640     5.2980    -7.1830 ca         1 L7M      -0.045000
     25 CBH         -9.3650     4.2680    -8.1140 ca         1 L7M      -0.033000
     26 CBI         -8.3360     3.8720    -8.9140 ca         1 L7M      -0.175000
     27 CBJ         -7.0840     4.4750    -8.8210 ca         1 L7M       0.003000
     28 CBK         -7.6880     6.9440    -6.1570 ca         1 L7M      -0.145000
     29 CBL         -8.7130     7.3460    -5.3540 ca         1 L7M      -0.091000
     30 CBM         -9.9670     6.7500    -5.4370 ca         1 L7M      -0.174000
     31 CBN        -10.2080     5.7350    -6.3390 ca         1 L7M       0.112600
     32 CBP          2.2050     0.0010    -1.2340 c3         1 L7M      -0.037900
     33 CBR         -2.9620     0.0070     5.4540 c3         1 L7M       0.129700
     34 CBS        -11.8040     4.4580    -5.1610 c3         1 L7M       0.156600
     35 CBT        -12.4930     6.1400    -6.7620 c3         1 L7M       0.156600
     36 NAD         -1.9720     1.6810    -2.6800 ns         1 L7M      -0.593900
     37 NAF          1.8080     0.0000     1.2910 n          1 L7M      -0.264200
     38 NBA         -4.6530     5.9030    -6.3320 n7         1 L7M      -0.918100
     39 NBO        -11.4680     5.1460    -6.4150 nh         1 L7M      -0.627000
     40 OAN         -0.7150     2.3480    -0.9790 o          1 L7M      -0.598100
     41 OAO          3.6720    -1.0500     1.8910 o          1 L7M      -0.506100
     42 OBD         -4.4360     5.5390    -8.7630 o          1 L7M      -0.638300
     43 OBE         -5.4800     7.6330    -7.8850 o          1 L7M      -0.638300
     44 OBQ         -2.9610     0.0080     4.0250 os         1 L7M      -0.330900
     45 SBB         -5.2630     6.2300    -7.8360 sy         1 L7M       1.429200
     46 ClAV         6.1120     5.1610     2.0130 cl         1 L7M      -0.099400
     47 H1          -0.4000    -0.5050    -2.0290 hc         1 L7M       0.065700
     48 H2          -1.8230    -0.5010    -0.9790 hc         1 L7M       0.065700
     49 H3           1.5520    -0.0110     4.1620 ha         1 L7M       0.134000
     50 H4          -0.6500    -0.0030     5.2510 ha         1 L7M       0.138000
     51 H5          -2.5860     0.0090     1.4360 ha         1 L7M       0.144000
     52 H6           5.7470     0.3310     2.1300 ha         1 L7M       0.162500
     53 H7           6.9740     2.4600     2.2760 ha         1 L7M       0.152500
     54 H8           3.3630     4.6150     1.5070 ha         1 L7M       0.152500
     55 H9           2.1190     2.4970     1.3540 ha         1 L7M       0.162500
     56 H10         -1.3280     3.5720    -3.3040 h1         1 L7M       0.054700
     57 H11         -2.7520     3.5750    -2.2540 h1         1 L7M       0.054700
     58 H12         -2.6680     2.5590    -5.1190 hc         1 L7M       0.048700
     59 H13         -4.0920     2.5630    -4.0690 hc         1 L7M       0.048700
     60 H14         -2.5320     5.0210    -4.9440 hc         1 L7M       0.053700
     61 H15         -3.9550     5.0250    -3.8930 hc         1 L7M       0.053700
     62 H16         -3.8750     4.0080    -6.7580 h1         1 L7M       0.049200
     63 H17         -5.2980     4.0140    -5.7070 h1         1 L7M       0.049200
     64 H18        -10.3340     3.7900    -8.1970 ha         1 L7M       0.156000
     65 H19         -8.4940     3.0760    -9.6320 ha         1 L7M       0.137000
     66 H20         -6.2820     4.1420    -9.4690 ha         1 L7M       0.154000
     67 H21         -6.7180     7.4200    -6.0780 ha         1 L7M       0.145000
     68 H22         -8.5470     8.1420    -4.6370 ha         1 L7M       0.134000
     69 H23        -10.7650     7.0880    -4.7860 ha         1 L7M       0.134000
     70 H24          3.2020    -0.3380    -0.9770 hc         1 L7M       0.055367
     71 H25          1.7780    -0.6650    -1.9750 hc         1 L7M       0.055367
     72 H26          2.2570     1.0040    -1.6380 hc         1 L7M       0.055367
     73 H27         -3.9840     0.0110     5.8140 h1         1 L7M       0.039700
     74 H28         -2.4560    -0.8800     5.8150 h1         1 L7M       0.039700
     75 H29         -2.4480     0.8890     5.8170 h1         1 L7M       0.039700
     76 H30        -12.8780     4.3270    -5.0980 h1         1 L7M       0.038533
     77 H31        -11.4620     5.0510    -4.3210 h1         1 L7M       0.038533
     78 H32        -11.3200     3.4890    -5.1400 h1         1 L7M       0.038533
     79 H33        -13.3630     5.6360    -7.1640 h1         1 L7M       0.038533
     80 H34        -12.0970     6.8230    -7.5030 h1         1 L7M       0.038533
     81 H35        -12.7740     6.6930    -5.8740 h1         1 L7M       0.038533
     82 H36         -2.3750     0.9230    -3.1950 hn         1 L7M       0.311500
     83 H37         -4.4390     6.6540    -5.7060 hn         1 L7M       0.454800
@<TRIPOS>BOND
     1    46    15 1
     2    15    16 ar
     3    15    14 ar
     4    16    17 ar
     5    14    13 ar
     6    17    12 ar
     7    13    12 ar
     8    12     7 1
     9    41     7 2
    10     7    37 1
    11    32     4 1
    12    37     4 1
    13    37     5 1
    14     4     1 2
    15    40     3 2
    16    43    45 2
    17     5     8 ar
    18     5     6 ar
    19    42    45 2
    20    18    19 1
    21    18    36 1
    22     3    36 1
    23     3     2 1
    24     8     9 ar
    25     1     6 1
    26     1     2 1
    27    19    20 1
    28    45    38 1
    29    45    22 1
    30     6    11 ar
    31    38    21 1
    32     9    10 ar
    33    20    21 1
    34    11    10 ar
    35    22    27 ar
    36    22    23 ar
    37    27    26 ar
    38    10    44 1
    39    28    23 ar
    40    28    29 ar
    41    23    24 ar
    42    26    25 ar
    43    44    33 1
    44    29    30 ar
    45    24    25 ar
    46    24    31 ar
    47    30    31 ar
    48    31    39 1
    49    39    35 1
    50    39    34 1
    51     2    47 1
    52     2    48 1
    53     8    49 1
    54     9    50 1
    55    11    51 1
    56    13    52 1
    57    14    53 1
    58    16    54 1
    59    17    55 1
    60    18    56 1
    61    18    57 1
    62    19    58 1
    63    19    59 1
    64    20    60 1
    65    20    61 1
    66    21    62 1
    67    21    63 1
    68    25    64 1
    69    26    65 1
    70    27    66 1
    71    28    67 1
    72    29    68 1
    73    30    69 1
    74    32    70 1
    75    32    71 1
    76    32    72 1
    77    33    73 1
    78    33    74 1
    79    33    75 1
    80    34    76 1
    81    34    77 1
    82    34    78 1
    83    35    79 1
    84    35    80 1
    85    35    81 1
    86    36    82 1
    87    38    83 1
@<TRIPOS>SUBSTRUCTURE
     1 L7M         1 TEMP              0 ****  ****    0 ROOT
