@<TRIPOS>MOLECULE
L7M
   83    87     1     0     0
SMALL
bcc


@<TRIPOS>ATOM
      1 CAA          0.0000     0.0000     0.0000 cc         1 L7M      -0.133400
      2 CAB         -0.8950     0.0060    -1.2120 c3         1 L7M       0.001800
      3 CAC         -1.1870     1.4290    -1.6140 c          1 L7M       0.568100
      4 CAE          1.3400     0.0000     0.0000 cd         1 L7M      -0.160600
      5 CAG          0.7420    -0.0050     2.1740 ca         1 L7M      -0.185400
      6 CAH         -0.4320     0.0000     1.4020 ca         1 L7M      -0.034800
      7 CAI          3.1090    -0.0000     1.6460 c          1 L7M       0.624700
      8 CAJ          0.6510    -0.0060     3.5600 ca         1 L7M      -0.054000
      9 CAK         -0.5850    -0.0020     4.1700 ca         1 L7M      -0.186000
     10 CAL         -1.7490     0.0040     3.4090 ca         1 L7M       0.129100
     11 CAM         -1.6790     0.0050     2.0280 ca         1 L7M      -0.099000
     12 CAP          3.8500     1.2730     1.7350 ca         1 L7M      -0.207600
     13 CAQ          5.2230     1.2690     1.9940 ca         1 L7M      -0.029000
     14 CAR          5.9090     2.4620     2.0750 ca         1 L7M      -0.117500
     15 CAS          5.2410     3.6620     1.9020 ca         1 L7M      -0.002600
     16 CAT          3.8800     3.6730     1.6450 ca         1 L7M      -0.117500
     17 CAU          3.1840     2.4870     1.5550 ca         1 L7M      -0.029000
     18 CAW         -2.2570     3.0640    -3.0710 c3         1 L7M       0.052000
     19 CAX         -3.1640     3.0700    -4.3020 c3         1 L7M      -0.037400
     20 CAY         -3.4610     4.5140    -4.7100 c3         1 L7M      -0.034400
     21 CAZ         -4.3700     4.5200    -5.9410 c3         1 L7M       0.226800
     22 CBC         -6.8530     5.4770    -7.9310 ca         1 L7M      -0.157500
     23 CBF         -7.8920     5.9120    -7.0890 ca         1 L7M       0.052000
     24 CBG         -9.1640     5.2980    -7.1830 ca         1 L7M      -0.052000
     25 CBH         -9.3650     4.2680    -8.1140 ca         1 L7M      -0.011000
     26 CBI         -8.3360     3.8720    -8.9140 ca         1 L7M      -0.153000
     27 CBJ         -7.0840     4.4750    -8.8210 ca         1 L7M       0.034000
     28 CBK         -7.6880     6.9440    -6.1570 ca         1 L7M      -0.125000
     29 CBL         -8.7130     7.3460    -5.3540 ca         1 L7M      -0.065000
     30 CBM         -9.9670     6.7500    -5.4370 ca         1 L7M      -0.145000
     31 CBN        -10.2080     5.7350    -6.3390 ca         1 L7M       0.038600
     32 CBP          2.2050     0.0010    -1.2340 c3         1 L7M       0.084100
     33 CBR         -2.9620     0.0070     5.4540 c3         1 L7M       0.244700
     34 CBS        -11.8040     4.4580    -5.1610 c3         1 L7M       0.178100
     35 CBT        -12.4930     6.1400    -6.7620 c3         1 L7M       0.178100
     36 NAD         -1.9720     1.6810    -2.6800 ns         1 L7M      -0.209900
     37 NAF          1.8080     0.0000     1.2910 n          1 L7M       0.204800
     38 NBA         -4.6530     5.9030    -6.3320 n7         1 L7M      -0.589100
     39 NBO        -11.4680     5.1460    -6.4150 nh         1 L7M      -0.411000
     40 OAN         -0.7150     2.3480    -0.9790 o          1 L7M      -0.639100
     41 OAO          3.6720    -1.0500     1.8910 o          1 L7M      -0.532100
     42 OBD         -4.4360     5.5390    -8.7630 o          1 L7M      -0.588300
     43 OBE         -5.4800     7.6330    -7.8850 o          1 L7M      -0.588300
     44 OBQ         -2.9610     0.0080     4.0250 os         1 L7M      -0.310900
     45 SBB         -5.2630     6.2300    -7.8360 sy         1 L7M       1.048200
     46 ClAV         6.1120     5.1610     2.0130 cl         1 L7M      -0.016400
     47 H1          -0.4000    -0.5050    -2.0290 hc         1 L7M       0.028700
     48 H2          -1.8230    -0.5010    -0.9790 hc         1 L7M       0.028700
     49 H3           1.5520    -0.0110     4.1620 ha         1 L7M       0.103000
     50 H4          -0.6500    -0.0030     5.2510 ha         1 L7M       0.120000
     51 H5          -2.5860     0.0090     1.4360 ha         1 L7M       0.114000
     52 H6           5.7470     0.3310     2.1300 ha         1 L7M       0.128500
     53 H7           6.9740     2.4600     2.2760 ha         1 L7M       0.121500
     54 H8           3.3630     4.6150     1.5070 ha         1 L7M       0.121500
     55 H9           2.1190     2.4970     1.3540 ha         1 L7M       0.128500
     56 H10         -1.3280     3.5720    -3.3040 h1         1 L7M       0.026700
     57 H11         -2.7520     3.5750    -2.2540 h1         1 L7M       0.026700
     58 H12         -2.6680     2.5590    -5.1190 hc         1 L7M       0.018200
     59 H13         -4.0920     2.5630    -4.0690 hc         1 L7M       0.018200
     60 H14         -2.5320     5.0210    -4.9440 hc         1 L7M       0.022700
     61 H15         -3.9550     5.0250    -3.8930 hc         1 L7M       0.022700
     62 H16         -3.8750     4.0080    -6.7580 h1         1 L7M       0.016200
     63 H17         -5.2980     4.0140    -5.7070 h1         1 L7M       0.016200
     64 H18        -10.3340     3.7900    -8.1970 ha         1 L7M       0.122000
     65 H19         -8.4940     3.0760    -9.6320 ha         1 L7M       0.109000
     66 H20         -6.2820     4.1420    -9.4690 ha         1 L7M       0.126000
     67 H21         -6.7180     7.4200    -6.0780 ha         1 L7M       0.133000
     68 H22         -8.5470     8.1420    -4.6370 ha         1 L7M       0.103000
     69 H23        -10.7650     7.0880    -4.7860 ha         1 L7M       0.112000
     70 H24          3.2020    -0.3380    -0.9770 hc         1 L7M       0.014367
     71 H25          1.7780    -0.6650    -1.9750 hc         1 L7M       0.014367
     72 H26          2.2570     1.0040    -1.6380 hc         1 L7M       0.014367
     73 H27         -3.9840     0.0110     5.8140 h1         1 L7M      -0.004300
     74 H28         -2.4560    -0.8800     5.8150 h1         1 L7M      -0.004300
     75 H29         -2.4480     0.8890     5.8170 h1         1 L7M      -0.004300
     76 H30        -12.8780     4.3270    -5.0980 h1         1 L7M       0.005533
     77 H31        -11.4620     5.0510    -4.3210 h1         1 L7M       0.005533
     78 H32        -11.3200     3.4890    -5.1400 h1         1 L7M       0.005533
     79 H33        -13.3630     5.6360    -7.1640 h1         1 L7M       0.005533
     80 H34        -12.0970     6.8230    -7.5030 h1         1 L7M       0.005533
     81 H35        -12.7740     6.6930    -5.8740 h1         1 L7M       0.005533
     82 H36         -2.3750     0.9230    -3.1950 hn         1 L7M       0.173500
     83 H37         -4.4390     6.6540    -5.7060 hn         1 L7M       0.351800
@<TRIPOS>BOND
     1     1     2 1   
     2     1     4 2   
     3     1     6 1   
     4     2     3 1   
     5     2    47 1   
     6     2    48 1   
     7     3    36 1   
     8     3    40 2   
     9     4    32 1   
    10     4    37 1   
    11     5     6 ar  
    12     5     8 ar  
    13     5    37 1   
    14     6    11 ar  
    15     7    12 1   
    16     7    37 1   
    17     7    41 2   
    18     8     9 ar  
    19     8    49 1   
    20     9    10 ar  
    21     9    50 1   
    22    10    11 ar  
    23    10    44 1   
    24    11    51 1   
    25    12    13 ar  
    26    12    17 ar  
    27    13    14 ar  
    28    13    52 1   
    29    14    15 ar  
    30    14    53 1   
    31    15    16 ar  
    32    15    46 1   
    33    16    17 ar  
    34    16    54 1   
    35    17    55 1   
    36    18    19 1   
    37    18    36 1   
    38    18    56 1   
    39    18    57 1   
    40    19    20 1   
    41    19    58 1   
    42    19    59 1   
    43    20    21 1   
    44    20    60 1   
    45    20    61 1   
    46    21    38 1   
    47    21    62 1   
    48    21    63 1   
    49    22    23 ar  
    50    22    27 ar  
    51    22    45 1   
    52    23    24 ar  
    53    23    28 ar  
    54    24    25 ar  
    55    24    31 ar  
    56    25    26 ar  
    57    25    64 1   
    58    26    27 ar  
    59    26    65 1   
    60    27    66 1   
    61    28    29 ar  
    62    28    67 1   
    63    29    30 ar  
    64    29    68 1   
    65    30    31 ar  
    66    30    69 1   
    67    31    39 1   
    68    32    70 1   
    69    32    71 1   
    70    32    72 1   
    71    33    44 1   
    72    33    73 1   
    73    33    74 1   
    74    33    75 1   
    75    34    39 1   
    76    34    76 1   
    77    34    77 1   
    78    34    78 1   
    79    35    39 1   
    80    35    79 1   
    81    35    80 1   
    82    35    81 1   
    83    36    82 1   
    84    38    45 1   
    85    38    83 1   
    86    42    45 2   
    87    43    45 2   
@<TRIPOS>SUBSTRUCTURE
     1 L7M         1 TEMP              0 ****  ****    0 ROOT
