@<TRIPOS>MOLECULE
L7O
   54    57     1     0     0
SMALL
bcc


@<TRIPOS>ATOM
      1 C1           0.0000     0.0000     0.0000 c3         1 L7O       0.135300
      2 N1           1.4690     0.0000     0.0000 nh         1 L7O      -0.353000
      3 O1           4.2590    -5.1550    -5.6720 o          1 L7O      -0.666500
      4 C2          -0.5110     1.2690     0.6840 c3         1 L7O      -0.026400
      5 N2           4.8200    -4.5300    -3.0710 ns         1 L7O      -0.043100
      6 O2           2.7230    -5.1400    -3.4820 o          1 L7O      -0.623100
      7 C3           0.0180     1.3190     2.1200 c3         1 L7O      -0.028400
      8 N3           5.4740    -7.0150    -5.6890 ns         1 L7O       0.102900
      9 C4           1.5490     1.2700     2.0930 c3         1 L7O      -0.026400
     10 C5           1.9990     0.0000     1.3680 c3         1 L7O       0.135300
     11 N5           9.1360   -10.3600    -1.7430 nb         1 L7O      -0.707000
     12 C6           1.5790    -3.0340    -2.0550 ca         1 L7O      -0.029500
     13 N6           7.8620    -8.4300    -1.7640 nb         1 L7O      -0.700000
     14 C8           6.2860    -7.8840    -5.0380 cc         1 L7O      -0.130400
     15 C9           6.6320    -7.6710    -3.7340 cd         1 L7O      -0.258800
     16 C10          6.1400    -6.5350    -3.0550 cd         1 L7O      -0.005000
     17 C11          5.3220    -5.6660    -3.7200 cc         1 L7O      -0.209600
     18 C12          4.9890    -5.9240    -5.0690 c          1 L7O       0.577700
     19 C13          8.8380   -10.6220    -3.0070 ca         1 L7O       0.503200
     20 C14          8.6560    -9.2840    -1.1370 ca         1 L7O       0.729900
     21 C15          7.5200    -8.6290    -3.0350 ca         1 L7O       0.553100
     22 C16          8.0120    -9.7570    -3.7000 ca         1 L7O      -0.436600
     23 C17          2.9590    -3.2160    -2.1800 ca         1 L7O      -0.184600
     24 C18          3.8380    -2.3160    -1.5700 ca         1 L7O      -0.029500
     25 C19          3.3420    -1.2520    -0.8510 ca         1 L7O      -0.165500
     26 C20          1.9670    -1.0740    -0.7290 ca         1 L7O       0.045600
     27 C21          1.0890    -1.9690    -1.3340 ca         1 L7O      -0.165500
     28 C22          9.8680    -9.9820     0.8950 c3         1 L7O       0.202100
     29 H1          -0.3600    -0.8680     0.5390 h1         1 L7O       0.019700
     30 H1A         -0.3600    -0.0280    -1.0220 h1         1 L7O       0.019700
     31 H2          -1.5950     1.2590     0.7000 hc         1 L7O       0.021200
     32 H2A         -0.1610     2.1380     0.1400 hc         1 L7O       0.021200
     33 H3          -0.3050     2.2390     2.5920 hc         1 L7O       0.014700
     34 H3A         -0.3610     0.4690     2.6740 hc         1 L7O       0.014700
     35 H4           1.9270     1.2600     3.1080 hc         1 L7O       0.021200
     36 H4A          1.9280     2.1380     1.5680 hc         1 L7O       0.021200
     37 HN4          8.6360    -8.2380     0.6530 hn         1 L7O       0.297800
     38 H5           3.0820    -0.0290     1.3340 h1         1 L7O       0.019700
     39 H5A          1.6260    -0.8680     1.8980 h1         1 L7O       0.019700
     40 H6           0.8960    -3.7310    -2.5260 ha         1 L7O       0.112500
     41 H8           6.6640    -8.7560    -5.5580 h4         1 L7O       0.133000
     42 H10          6.4070    -6.3550    -2.0210 ha         1 L7O       0.130000
     43 H13          9.2370   -11.5050    -3.4910 h4         1 L7O      -0.020900
     44 H16          7.7530    -9.9480    -4.7340 ha         1 L7O       0.124000
     45 H18          4.9080    -2.4540    -1.6650 ha         1 L7O       0.112500
     46 H19          4.0220    -0.5540    -0.3780 ha         1 L7O       0.121500
     47 H21          0.0190    -1.8280    -1.2370 ha         1 L7O       0.121500
     48 H22          9.4110   -10.9640     0.9130 h1         1 L7O       0.009367
     49 H22A        10.8230   -10.0370     0.3860 h1         1 L7O       0.009367
     50 H22B        10.0200    -9.6360     1.9110 h1         1 L7O       0.009367
     51 HN2          5.4480    -3.8270    -2.7340 hn         1 L7O       0.170500
     52 HN3          5.2310    -7.1880    -6.6440 hn         1 L7O       0.170500
     53 C7           3.4880    -4.3560    -2.9520 c          1 L7O       0.594700
     54 N4           8.9910    -9.0480     0.1840 nu         1 L7O      -0.483900
@<TRIPOS>BOND
     1     1     2 1   
     2     1     4 1   
     3     1    29 1   
     4     1    30 1   
     5     2    10 1   
     6     2    26 1   
     7     3    18 2   
     8     4     7 1   
     9     4    31 1   
    10     4    32 1   
    11     5    17 1   
    12     5    51 1   
    13     5    53 1   
    14     6    53 2   
    15     7     9 1   
    16     7    33 1   
    17     7    34 1   
    18     8    14 1   
    19     8    18 1   
    20     8    52 1   
    21     9    10 1   
    22     9    35 1   
    23     9    36 1   
    24    10    38 1   
    25    10    39 1   
    26    11    19 ar  
    27    11    20 ar  
    28    12    23 ar  
    29    12    27 ar  
    30    12    40 1   
    31    13    20 ar  
    32    13    21 ar  
    33    14    15 2   
    34    14    41 1   
    35    15    16 1   
    36    15    21 1   
    37    16    17 2   
    38    16    42 1   
    39    17    18 1   
    40    19    22 ar  
    41    19    43 1   
    42    20    54 1   
    43    21    22 ar  
    44    22    44 1   
    45    23    24 ar  
    46    23    53 1   
    47    24    25 ar  
    48    24    45 1   
    49    25    26 ar  
    50    25    46 1   
    51    26    27 ar  
    52    27    47 1   
    53    28    48 1   
    54    28    49 1   
    55    28    50 1   
    56    28    54 1   
    57    37    54 1   
@<TRIPOS>SUBSTRUCTURE
     1 L7O         1 TEMP              0 ****  ****    0 ROOT
