@<TRIPOS>MOLECULE
molecule
   33    34     1     0     0
SMALL
bcc


@<TRIPOS>ATOM
      1 C            0.0000     0.0000     0.0000 c3         1 L7S      -0.113100
      2 N            2.0200     0.0000     1.3810 n          1 L7S      -0.487400
      3 C1           1.5300     0.0000     0.0000 c3         1 L7S       0.094000
      4 N1           1.0690     3.9220     8.5120 nz         1 L7S      -0.679400
      5 C2           2.2620    -1.1270     2.0630 c          1 L7S       0.698500
      6 O2           3.0990     3.7310     7.6300 o          1 L7S      -0.415100
      7 C3           2.7520    -0.7730     3.4500 c3         1 L7S      -0.172400
      8 C4           2.7520     0.7700     3.4510 c3         1 L7S      -0.130400
      9 C5           2.2650     1.1250     2.0630 c          1 L7S       0.706500
     10 C6           1.8070     1.2990     4.5000 ca         1 L7S      -0.062300
     11 C7           0.4630     0.9800     4.4420 ca         1 L7S      -0.055000
     12 C8          -0.4110     1.4630     5.4010 ca         1 L7S      -0.109000
     13 C9           0.0550     2.2640     6.4210 ca         1 L7S      -0.099000
     14 C10          1.4110     2.5900     6.4860 ca         1 L7S      -0.212600
     15 C11          2.2880     2.0960     5.5190 ca         1 L7S      -0.013000
     16 C12          1.9180     3.4500     7.5760 c          1 L7S       0.509700
     17 H           -0.3610     0.9450     0.3870 hc         1 L7S       0.049033
     18 HA          -0.3610    -0.8080     0.6250 hc         1 L7S       0.049033
     19 HB          -0.3610    -0.1370    -1.0120 hc         1 L7S       0.049033
     20 H1           1.8910     0.8840    -0.5110 h1         1 L7S       0.080700
     21 H1A          1.8910    -0.8840    -0.5110 h1         1 L7S       0.080700
     22 HN1          1.5760     4.4820     9.1690 hn         1 L7S       0.479133
     23 HN1A         0.3640     4.4790     8.0730 hn         1 L7S       0.479133
     24 H3           2.0710    -1.1530     4.2020 hc         1 L7S       0.094700
     25 H3A          3.7550    -1.1520     3.6070 hc         1 L7S       0.094700
     26 H4           3.7550     1.1480     3.6080 hc         1 L7S       0.106700
     27 H7           0.0920     0.3510     3.6420 ha         1 L7S       0.167000
     28 H8          -1.4140     1.1100     5.1950 ha         1 L7S       0.172000
     29 H9          -0.6310     2.6430     7.1700 ha         1 L7S       0.112000
     30 H11          3.3410     2.3450     5.5630 ha         1 L7S       0.172000
     31 O            2.1120    -2.2510     1.6370 o          1 L7S      -0.553500
     32 O1           2.1200     2.2500     1.6360 o          1 L7S      -0.568500
     33 H13          0.6420     3.1540     8.9930 hn         1 L7S       0.479133
@<TRIPOS>BOND
     1     1     3 1
     2     2     3 1
     3     2     5 1
     4     2     9 1
     5    31     5 2
     6     4    16 1
     7    32     9 2
     8     5     7 1
     9     6    16 2
    10     7     8 1
    11     8     9 1
    12     8    10 1
    13    10    11 ar
    14    10    15 ar
    15    11    12 ar
    16    12    13 ar
    17    13    14 ar
    18    14    15 ar
    19    14    16 1
    20     1    17 1
    21     1    18 1
    22     1    19 1
    23     3    20 1
    24     3    21 1
    25     4    22 1
    26     4    23 1
    27     7    24 1
    28     7    25 1
    29     8    26 1
    30    11    27 1
    31    12    28 1
    32    13    29 1
    33    15    30 1
    34    33     4 1
@<TRIPOS>SUBSTRUCTURE
     1 L7S         1 TEMP              0 ****  ****    0 ROOT
