@<TRIPOS>MOLECULE
L7S
   33    34     1     0     0
SMALL
bcc


@<TRIPOS>ATOM
      1 C            0.0000     0.0000     0.0000 c3         1 L7S      -0.012100
      2 N            2.0200     0.0000     1.3810 n          1 L7S      -0.122400
      3 C1           1.5300     0.0000     0.0000 c3         1 L7S       0.040000
      4 N1           1.0690     3.9220     8.5120 nz         1 L7S       0.198600
      5 C2           2.2620    -1.1270     2.0630 c          1 L7S       0.620500
      6 O2           3.0990     3.7310     7.6300 o          1 L7S      -0.426100
      7 C3           2.7520    -0.7730     3.4500 c3         1 L7S      -0.117400
      8 C4           2.7520     0.7700     3.4510 c3         1 L7S      -0.097400
      9 C5           2.2650     1.1250     2.0630 c          1 L7S       0.627500
     10 C6           1.8070     1.2990     4.5000 ca         1 L7S      -0.064300
     11 C7           0.4630     0.9800     4.4420 ca         1 L7S      -0.023000
     12 C8          -0.4110     1.4630     5.4010 ca         1 L7S      -0.074000
     13 C9           0.0550     2.2640     6.4210 ca         1 L7S      -0.067000
     14 C10          1.4110     2.5900     6.4860 ca         1 L7S      -0.237600
     15 C11          2.2880     2.0960     5.5190 ca         1 L7S       0.031000
     16 C12          1.9180     3.4500     7.5760 c          1 L7S       0.359700
     17 H           -0.3610     0.9450     0.3870 hc         1 L7S       0.014367
     18 HA          -0.3610    -0.8080     0.6250 hc         1 L7S       0.014367
     19 HB          -0.3610    -0.1370    -1.0120 hc         1 L7S       0.014367
     20 H1           1.8910     0.8840    -0.5110 h1         1 L7S       0.049200
     21 H1A          1.8910    -0.8840    -0.5110 h1         1 L7S       0.049200
     22 HN1          1.5760     4.4820     9.1690 hn         1 L7S       0.247467
     23 HN1A         0.3640     4.4790     8.0730 hn         1 L7S       0.247467
     24 H3           2.0710    -1.1530     4.2020 hc         1 L7S       0.058700
     25 H3A          3.7550    -1.1520     3.6070 hc         1 L7S       0.058700
     26 H4           3.7550     1.1480     3.6080 hc         1 L7S       0.071700
     27 H7           0.0920     0.3510     3.6420 ha         1 L7S       0.128000
     28 H8          -1.4140     1.1100     5.1950 ha         1 L7S       0.136000
     29 H9          -0.6310     2.6430     7.1700 ha         1 L7S       0.082000
     30 H11          3.3410     2.3450     5.5630 ha         1 L7S       0.138000
     31 O            2.1120    -2.2510     1.6370 o          1 L7S      -0.588500
     32 O1           2.1200     2.2500     1.6360 o          1 L7S      -0.607500
     33 H13          0.6420     3.1540     8.9930 hn         1 L7S       0.247467
@<TRIPOS>BOND
     1     1     3 1   
     2     1    17 1   
     3     1    18 1   
     4     1    19 1   
     5     2     3 1   
     6     2     5 1   
     7     2     9 1   
     8     3    20 1   
     9     3    21 1   
    10     4    16 1   
    11     4    22 1   
    12     4    23 1   
    13     4    33 1   
    14     5     7 1   
    15     5    31 2   
    16     6    16 2   
    17     7     8 1   
    18     7    24 1   
    19     7    25 1   
    20     8     9 1   
    21     8    10 1   
    22     8    26 1   
    23     9    32 2   
    24    10    11 ar  
    25    10    15 ar  
    26    11    12 ar  
    27    11    27 1   
    28    12    13 ar  
    29    12    28 1   
    30    13    14 ar  
    31    13    29 1   
    32    14    15 ar  
    33    14    16 1   
    34    15    30 1   
@<TRIPOS>SUBSTRUCTURE
     1 L7S         1 TEMP              0 ****  ****    0 ROOT
