@<TRIPOS>MOLECULE
molecule
   43    46     1     0     0
SMALL
bcc


@<TRIPOS>ATOM
      1 C1           0.0000     0.0000     0.0000 c3         1 L81      -0.078100
      2 C19          2.0640    -1.2100    -0.7690 c3         1 L81      -0.078100
      3 C2           1.5300     0.0000     0.0000 c3         1 L81      -0.034700
      4 C3           2.0670     0.0000     1.4410 c3         1 L81       0.166800
      5 C4           2.0580     1.2850    -0.6000 ca         1 L81      -0.167300
      6 C5           1.9030     1.8150    -1.8490 ca         1 L81      -0.045000
      7 C6           2.4970     3.0380    -2.1740 ca         1 L81      -0.190600
      8 C7           2.3280     3.6110    -3.5200 c          1 L81       0.713700
      9 O8           3.2830     4.0940    -4.0990 o          1 L81      -0.587100
     10 N9           1.1170     3.6000    -4.1100 n          1 L81      -0.494800
     11 C10          0.8080     4.0290    -5.4780 c3         1 L81       0.150800
     12 C11         -0.6710     3.8360    -5.6970 ca         1 L81      -0.106300
     13 C12         -1.4700     4.0820    -6.7990 ca         1 L81      -0.105500
     14 C13         -2.8250     3.8180    -6.7470 ca         1 L81      -0.123500
     15 C14         -3.3840     3.3060    -5.5910 ca         1 L81      -0.123500
     16 C15         -2.5870     3.0610    -4.4890 ca         1 L81      -0.105500
     17 C16         -1.2290     3.3260    -4.5410 ca         1 L81      -0.106300
     18 C17         -0.1430     3.1520    -3.5110 c3         1 L81       0.150800
     19 C18          3.2550     3.7160    -1.2060 ca         1 L81       0.196100
     20 O19          3.8370     4.9040    -1.5060 oh         1 L81      -0.492100
     21 C20          3.4050     3.1700     0.0540 ca         1 L81      -0.222000
     22 C21          2.8060     1.9470     0.3680 ca         1 L81       0.142600
     23 N5           2.8390     1.2390     1.5640 nu         1 L81      -0.678600
     24 H11C        -0.3610    -0.1040    -1.0160 hc         1 L81       0.039867
     25 HA2         -0.3610     0.9320     0.4180 hc         1 L81       0.039867
     26 HB3         -0.3610    -0.8280     0.5980 hc         1 L81       0.039867
     27 HA1          1.2370     0.0190     2.1370 h1         1 L81       0.059200
     28 HB2          2.7210    -0.8510     1.5840 h1         1 L81       0.059200
     29 HB1          1.7560    -2.1210    -0.2690 hc         1 L81       0.039867
     30 HC2          3.1460    -1.1670    -0.8060 hc         1 L81       0.039867
     31 HD3          1.6680    -1.2010    -1.7770 hc         1 L81       0.039867
     32 HA           2.4520     1.8020     2.2950 hn         1 L81       0.378800
     33 H5           1.3420     1.2720    -2.6000 ha         1 L81       0.141000
     34 HC1          1.3540     3.4060    -6.1770 h1         1 L81       0.059950
     35 HD2          1.0490     5.0800    -5.5840 h1         1 L81       0.059950
     36 HD1         -0.3670     3.7530    -2.6380 h1         1 L81       0.059950
     37 HE2         -0.0660     2.1070    -3.2340 h1         1 L81       0.059950
     38 HB          -1.0320     4.4830    -7.7050 ha         1 L81       0.132000
     39 HC          -3.4490     4.0110    -7.6120 ha         1 L81       0.133500
     40 HD          -4.4460     3.0990    -5.5480 ha         1 L81       0.133500
     41 HE          -3.0250     2.6600    -3.5830 ha         1 L81       0.132000
     42 HF           4.7510     4.8730    -1.2750 ho         1 L81       0.430000
     43 HG           3.9900     3.6930     0.8020 ha         1 L81       0.145000
@<TRIPOS>BOND
     1     1     3 1
     2     3     4 1
     3     3     5 1
     4     3     2 1
     5     4    23 1
     6     5     6 ar
     7     5    22 ar
     8     6     7 ar
     9     7     8 1
    10     7    19 ar
    11     8     9 2
    12     8    10 1
    13    10    11 1
    14    10    18 1
    15    11    12 1
    16    12    13 ar
    17    12    17 ar
    18    13    14 ar
    19    14    15 ar
    20    15    16 ar
    21    16    17 ar
    22    17    18 1
    23    19    20 1
    24    19    21 ar
    25    21    22 ar
    26    22    23 1
    27     1    24 1
    28     1    25 1
    29     1    26 1
    30     4    27 1
    31     4    28 1
    32     2    29 1
    33     2    30 1
    34     2    31 1
    35    23    32 1
    36     6    33 1
    37    11    34 1
    38    11    35 1
    39    18    36 1
    40    18    37 1
    41    13    38 1
    42    14    39 1
    43    15    40 1
    44    16    41 1
    45    20    42 1
    46    21    43 1
@<TRIPOS>SUBSTRUCTURE
     1 L81         1 TEMP              0 ****  ****    0 ROOT
