@<TRIPOS>MOLECULE
L81
   43    46     1     0     0
SMALL
bcc


@<TRIPOS>ATOM
      1 C1           0.0000     0.0000     0.0000 c3         1 L81       0.013400
      2 C19          2.0640    -1.2100    -0.7690 c3         1 L81       0.013400
      3 C2           1.5300     0.0000     0.0000 c3         1 L81      -0.013700
      4 C3           2.0670     0.0000     1.4410 c3         1 L81       0.131800
      5 C4           2.0580     1.2850    -0.6000 ca         1 L81      -0.183300
      6 C5           1.9030     1.8150    -1.8490 ca         1 L81      -0.014000
      7 C6           2.4970     3.0380    -2.1740 ca         1 L81      -0.214600
      8 C7           2.3280     3.6110    -3.5200 c          1 L81       0.649700
      9 O8           3.2830     4.0940    -4.0990 o          1 L81      -0.634100
     10 N9           1.1170     3.6000    -4.1100 n          1 L81      -0.163800
     11 C10          0.8080     4.0290    -5.4780 c3         1 L81       0.115800
     12 C11         -0.6710     3.8360    -5.6970 ca         1 L81      -0.113300
     13 C12         -1.4700     4.0820    -6.7990 ca         1 L81      -0.072000
     14 C13         -2.8250     3.8180    -6.7470 ca         1 L81      -0.098000
     15 C14         -3.3840     3.3060    -5.5910 ca         1 L81      -0.098000
     16 C15         -2.5870     3.0610    -4.4890 ca         1 L81      -0.072000
     17 C16         -1.2290     3.3260    -4.5410 ca         1 L81      -0.113300
     18 C17         -0.1430     3.1520    -3.5110 c3         1 L81       0.115800
     19 C18          3.2550     3.7160    -1.2060 ca         1 L81       0.222100
     20 O19          3.8370     4.9040    -1.5060 oh         1 L81      -0.474100
     21 C20          3.4050     3.1700     0.0540 ca         1 L81      -0.207000
     22 C21          2.8060     1.9470     0.3680 ca         1 L81       0.060600
     23 N5           2.8390     1.2390     1.5640 nu         1 L81      -0.388600
     24 H11C        -0.3610    -0.1040    -1.0160 hc         1 L81       0.007700
     25 HA2         -0.3610     0.9320     0.4180 hc         1 L81       0.007700
     26 HB3         -0.3610    -0.8280     0.5980 hc         1 L81       0.007700
     27 HA1          1.2370     0.0190     2.1370 h1         1 L81       0.029200
     28 HB2          2.7210    -0.8510     1.5840 h1         1 L81       0.029200
     29 HB1          1.7560    -2.1210    -0.2690 hc         1 L81       0.007700
     30 HC2          3.1460    -1.1670    -0.8060 hc         1 L81       0.007700
     31 HD3          1.6680    -1.2010    -1.7770 hc         1 L81       0.007700
     32 HA           2.4520     1.8020     2.2950 hn         1 L81       0.258800
     33 H5           1.3420     1.2720    -2.6000 ha         1 L81       0.114000
     34 HC1          1.3540     3.4060    -6.1770 h1         1 L81       0.028200
     35 HD2          1.0490     5.0800    -5.5840 h1         1 L81       0.028200
     36 HD1         -0.3670     3.7530    -2.6380 h1         1 L81       0.028200
     37 HE2         -0.0660     2.1070    -3.2340 h1         1 L81       0.028200
     38 HB          -1.0320     4.4830    -7.7050 ha         1 L81       0.103500
     39 HC          -3.4490     4.0110    -7.6120 ha         1 L81       0.105000
     40 HD          -4.4460     3.0990    -5.5480 ha         1 L81       0.105000
     41 HE          -3.0250     2.6600    -3.5830 ha         1 L81       0.103500
     42 HF           4.7510     4.8730    -1.2750 ho         1 L81       0.411000
     43 HG           3.9900     3.6930     0.8020 ha         1 L81       0.120000
@<TRIPOS>BOND
     1     1     3 1   
     2     1    24 1   
     3     1    25 1   
     4     1    26 1   
     5     2     3 1   
     6     2    29 1   
     7     2    30 1   
     8     2    31 1   
     9     3     4 1   
    10     3     5 1   
    11     4    23 1   
    12     4    27 1   
    13     4    28 1   
    14     5     6 ar  
    15     5    22 ar  
    16     6     7 ar  
    17     6    33 1   
    18     7     8 1   
    19     7    19 ar  
    20     8     9 2   
    21     8    10 1   
    22    10    11 1   
    23    10    18 1   
    24    11    12 1   
    25    11    34 1   
    26    11    35 1   
    27    12    13 ar  
    28    12    17 ar  
    29    13    14 ar  
    30    13    38 1   
    31    14    15 ar  
    32    14    39 1   
    33    15    16 ar  
    34    15    40 1   
    35    16    17 ar  
    36    16    41 1   
    37    17    18 1   
    38    18    36 1   
    39    18    37 1   
    40    19    20 1   
    41    19    21 ar  
    42    20    42 1   
    43    21    22 ar  
    44    21    43 1   
    45    22    23 1   
    46    23    32 1   
@<TRIPOS>SUBSTRUCTURE
     1 L81         1 TEMP              0 ****  ****    0 ROOT
