@<TRIPOS>MOLECULE
molecule
   28    29     1     0     0
SMALL
bcc


@<TRIPOS>ATOM
      1 NA           0.0000     0.0000     0.0000 ne         1 L85      -0.198400
      2 NB           1.2900     0.0000     0.0000 nf         1 L85      -0.261400
      3 CG           1.9730     0.0000     1.1830 ca         1 L85       0.121400
      4 CH          -0.6830     0.0000    -1.1840 ca         1 L85       0.079400
      5 CK          -2.0670     0.0020    -3.5830 ca         1 L85      -0.213500
      6 OT          -3.1740     1.4570    -5.4970 o          1 L85      -0.704200
      7 CZ           3.3580    -0.0010     3.5830 ca         1 L85       0.097100
      8 OC1         -2.0670    -0.5390    -6.0810 o          1 L85      -0.704200
      9 OC2         -4.2310    -0.5420    -4.8320 o          1 L85      -0.704200
     10 CD1          3.3710     0.0000     1.1860 ca         1 L85      -0.099500
     11 CD2          1.2750     0.0040     2.3960 ca         1 L85      -0.099500
     12 CE1          4.0560     0.0000     2.3810 ca         1 L85      -0.161000
     13 CE2          1.9680     0.0030     3.5860 ca         1 L85      -0.161000
     14 CI1         -2.0800    -0.0000    -1.1880 ca         1 L85      -0.114500
     15 CI2          0.0120     0.0080    -2.3960 ca         1 L85      -0.114500
     16 CJ1         -2.7630    -0.0000    -2.3860 ca         1 L85      -0.060500
     17 CJ2         -0.6840     0.0090    -3.5860 ca         1 L85      -0.060500
     18 SO4         -2.9490     0.0030    -5.1090 s6         1 L85       1.317100
     19 HOH          4.1930    -0.8910     5.0320 ho         1 L85       0.413000
     20 HD1          3.9160     0.0010     0.2490 ha         1 L85       0.152500
     21 HD2          0.1920     0.0080     2.3990 ha         1 L85       0.152500
     22 HE1          5.1390     0.0000     2.3840 ha         1 L85       0.135500
     23 HE2          1.4290     0.0070     4.5250 ha         1 L85       0.135500
     24 HI1         -2.6260    -0.0020    -0.2520 ha         1 L85       0.133000
     25 HI2          1.0950     0.0120    -2.4000 ha         1 L85       0.133000
     26 HJ1         -3.8470    -0.0030    -2.3910 ha         1 L85       0.157000
     27 HJ2         -0.1460     0.0120    -4.5270 ha         1 L85       0.157000
     28 OH           4.0370    -0.0020     4.7590 oh         1 L85      -0.528100
@<TRIPOS>BOND
     1     1     2 2
     2     1     4 1
     3     2     3 1
     4     3    10 ar
     5     3    11 ar
     6     4    14 ar
     7     4    15 ar
     8    28     7 1
     9    28    19 1
    10     5    16 ar
    11     5    17 ar
    12     5    18 1
    13     6    18 1
    14     7    12 ar
    15     7    13 ar
    16     8    18 1
    17     9    18 1
    18    10    12 ar
    19    10    20 1
    20    11    13 ar
    21    11    21 1
    22    12    22 1
    23    13    23 1
    24    14    16 ar
    25    14    24 1
    26    15    17 ar
    27    15    25 1
    28    16    26 1
    29    17    27 1
@<TRIPOS>SUBSTRUCTURE
     1 L85         1 TEMP              0 ****  ****    0 ROOT
