@<TRIPOS>MOLECULE
L86
   72    75     1     0     0
SMALL
bcc


@<TRIPOS>ATOM
      1 C8         -0.6150    0.2090    0.1130 ca        1 L86     -0.159500
      2 C2          0.7010    0.6420    0.3360 ca        1 L86     -0.162300
      3 C10         0.9540    1.5530    1.3690 ca        1 L86     -0.159500
      4 C4         -0.0930    2.0370    2.1540 ca        1 L86     -0.098500
      5 C5         -1.4010    1.6110    1.9190 ca        1 L86     -0.090000
      6 C6         -1.6590    0.6920    0.9000 ca        1 L86     -0.098500
      7 C11         1.8160    0.0550   -0.4540 c3        1 L86     -0.084100
      8 C1          2.5940    1.0520   -1.3350 c3        1 L86      0.179500
      9 N18         3.7860    1.6500   -0.7440 nh        1 L86     -0.748200
     10 C21         4.8300    0.7610   -0.3580 cc        1 L86      0.497200
     11 C22         5.6900    0.2200   -1.4660 c         1 L86      0.609200
     12 N23         6.9530   -0.2850   -1.0820 n         1 L86     -0.339000
     13 C24         7.2390   -0.4590    0.2830 cc        1 L86      0.079000
     14 C25         6.3000   -0.0760    1.2330 cd        1 L86      0.033600
     15 N3          5.1280    0.5530    0.9180 nd        1 L86     -0.485300
     16 O28         5.3610    0.1320   -2.6720 o         1 L86     -0.719500
     17 CL2         8.7090   -1.1250    0.7740 cl        1 L86      0.051600
     18 C33         7.9670   -0.4500   -2.0920 c3        1 L86      0.016000
     19 C34         7.7850   -1.7480   -2.8850 c         1 L86      0.516100
     20 N37         7.1740   -1.5790   -4.2550 n4        1 L86     -0.683800
     21 O38         8.0910   -2.8690   -2.5240 o         1 L86     -0.359100
     22 C39         6.5510   -2.8330   -4.7950 c3        1 L86      0.166100
     23 C40         6.3480   -2.7600   -6.2720 ca        1 L86     -0.169300
     24 C43         5.0800   -2.5900   -6.8640 ca        1 L86     -0.076300
     25 C44         4.9800   -2.6280   -8.2580 ca        1 L86     -0.130000
     26 C45         6.1100   -2.8150   -9.0580 ca        1 L86     -0.058000
     27 C15         7.4760   -2.9530   -7.0810 ca        1 L86     -0.096000
     28 C9          3.8800   -2.4130   -5.9950 c3        1 L86     -0.055100
     29 C50         7.3640   -2.9750   -8.4700 ca        1 L86     -0.084000
     30 C3          2.6070   -2.1340   -6.7900 c3        1 L86      0.103800
     31 C7          1.6790    2.2250   -1.7910 c3        1 L86      0.090800
     32 N2          0.4450    1.7880   -2.5100 n4        1 L86     -0.759000
     33 N5          1.4310   -1.8020   -5.9140 n4        1 L86     -0.764000
     34 C12         1.4160   -0.3650   -5.5060 c3        1 L86      0.098800
     35 C13         0.7330   -0.1170   -4.1620 c3        1 L86     -0.134400
     36 C14         0.6760    1.3940   -3.9300 c3        1 L86      0.103800
     37 H8         -0.8230   -0.5770   -0.6310 ha        1 L86      0.129000
     38 H10         1.9870    1.8610    1.5950 ha        1 L86      0.129000
     39 H4          0.1180    2.7420    2.9760 ha        1 L86      0.169000
     40 H5         -2.2260    1.9820    2.5520 ha        1 L86      0.178000
     41 H6         -2.6870    0.3280    0.7380 ha        1 L86      0.169000
     42 H111        1.4200   -0.7590   -1.1210 hc        1 L86      0.069700
     43 H112        2.5270   -0.4480    0.2620 hc        1 L86      0.069700
     44 H1          2.9560    0.4950   -2.2530 h1        1 L86      0.060700
     45 H18         3.5400    2.2660    0.0190 hn        1 L86      0.422800
     46 H25         6.4740   -0.2420    2.3170 h4        1 L86      0.239000
     47 H331        7.9470    0.4450   -2.7820 h1        1 L86      0.137700
     48 H332        8.9990   -0.5100   -1.6210 h1        1 L86      0.137700
     49 H37         7.9130   -1.2730   -4.9050 hn        1 L86      0.472300
     50 H391        7.2480   -3.6970   -4.5540 hx        1 L86      0.116700
     51 H392        5.5920   -2.9990   -4.2310 hx        1 L86      0.116700
     52 H44         4.0080   -2.5280   -8.7660 ha        1 L86      0.140000
     53 H45         6.0060   -2.8470  -10.1580 ha        1 L86      0.185000
     54 H15         8.4650   -3.1190   -6.6200 ha        1 L86      0.155000
     55 H91         4.0750   -1.5680   -5.2770 hc        1 L86      0.064200
     56 H92         3.7350   -3.3540   -5.3910 hc        1 L86      0.064200
     57 H50         8.2580   -3.1350   -9.0980 ha        1 L86      0.189000
     58 H31         2.7600   -1.2710   -7.5020 hx        1 L86      0.130700
     59 H32         2.3260   -3.0540   -7.3870 hx        1 L86      0.130700
     60 H71         1.3310    2.7940   -0.8720 hx        1 L86      0.130700
     61 H72         2.2510    2.9310   -2.4590 hx        1 L86      0.130700
     62 H2         -0.2110    2.5860   -2.5020 hn        1 L86      0.479300
     63 HN5         0.5660   -2.0150   -6.4320 hn        1 L86      0.466300
     64 H121        0.8940    0.2180   -6.3220 hx        1 L86      0.121200
     65 H122        2.4870   -0.0060   -5.4490 hx        1 L86      0.121200
     66 H131       -0.3100   -0.5380   -4.1590 hc        1 L86      0.093200
     67 H132        1.3090   -0.6270   -3.3420 hc        1 L86      0.093200
     68 H141       -0.1690    1.8260   -4.5480 hx        1 L86      0.120700
     69 H142        1.6380    1.8750   -4.2760 hx        1 L86      0.120700
     70 H372        6.4640   -0.8310   -4.1970 hn        1 L86      0.472300
     71 H22         0.0030    1.0150   -1.9790 hn        1 L86      0.479300
     72 H52         1.4540   -2.4030   -5.0800 hn        1 L86      0.466300
@<TRIPOS>BOND
     1    1    2 ar  
     2    1    6 ar  
     3    1   37 1   
     4    2    3 ar  
     5    2    7 1   
     6    3    4 ar  
     7    3   38 1   
     8    4    5 ar  
     9    4   39 1   
    10    5    6 ar  
    11    5   40 1   
    12    6   41 1   
    13    7    8 1   
    14    7   42 1   
    15    7   43 1   
    16    8    9 1   
    17    8   31 1   
    18    8   44 1   
    19    9   10 1   
    20    9   45 1   
    21   10   11 1   
    22   10   15 2   
    23   11   12 1   
    24   11   16 2   
    25   12   13 1   
    26   12   18 1   
    27   13   14 2   
    28   13   17 1   
    29   14   15 1   
    30   14   46 1   
    31   18   19 1   
    32   18   47 1   
    33   18   48 1   
    34   19   20 1   
    35   19   21 2   
    36   20   22 1   
    37   20   49 1   
    38   20   70 1   
    39   22   23 1   
    40   22   50 1   
    41   22   51 1   
    42   23   24 ar  
    43   23   27 ar  
    44   24   25 ar  
    45   24   28 1   
    46   25   26 ar  
    47   25   52 1   
    48   26   29 ar  
    49   26   53 1   
    50   27   29 ar  
    51   27   54 1   
    52   28   30 1   
    53   28   55 1   
    54   28   56 1   
    55   29   57 1   
    56   30   33 1   
    57   30   58 1   
    58   30   59 1   
    59   31   32 1   
    60   31   60 1   
    61   31   61 1   
    62   32   36 1   
    63   32   62 1   
    64   32   71 1   
    65   33   34 1   
    66   33   63 1   
    67   33   72 1   
    68   34   35 1   
    69   34   64 1   
    70   34   65 1   
    71   35   36 1   
    72   35   66 1   
    73   35   67 1   
    74   36   68 1   
    75   36   69 1   
@<TRIPOS>SUBSTRUCTURE
     1 L86         1 TEMP              0 ****  ****    0 ROOT
