@<TRIPOS>MOLECULE
molecule
   47    50     1     0     0
SMALL
bcc


@<TRIPOS>ATOM
      1 O2           0.0000     0.0000     0.0000 o          1 L87      -0.655500
      2 C17          1.2150     0.0000     0.0000 c          1 L87       0.821500
      3 N4           1.8710     0.0000     1.1730 ns         1 L87      -0.559500
      4 N5           1.8710    -0.0070    -1.1760 n          1 L87      -0.424300
      5 C18          1.1200    -0.0120    -2.4340 c3         1 L87       0.108300
      6 C2           3.2590    -0.0080    -1.1970 cc         1 L87       0.552200
      7 C3           3.9470    -0.0030     0.0150 cd         1 L87      -0.395200
      8 C16          3.2190     0.0000     1.2170 c          1 L87       0.754100
      9 O3           3.8010     0.0060     2.2880 o          1 L87      -0.643500
     10 N1           4.1620    -0.0140    -2.1730 nc         1 L87      -0.758000
     11 C1           5.3830    -0.0120    -1.6600 cd         1 L87       0.547000
     12 N2           5.2970    -0.0050    -0.3030 na         1 L87      -0.059900
     13 N3           6.7130    -0.0160    -1.9920 na         1 L87      -0.193900
     14 C6           7.2630    -0.0230    -3.3490 c3         1 L87       0.062300
     15 C7           7.4520     1.4170    -3.8310 c3         1 L87      -0.106400
     16 C8           8.0260     1.4090    -5.2490 c3         1 L87      -0.082400
     17 C9           8.2150     2.8490    -5.7310 c3         1 L87      -0.090100
     18 C5           7.4450    -0.0090    -0.8120 cc         1 L87      -0.028300
     19 C4           6.5770    -0.0050     0.2140 cd         1 L87      -0.131300
     20 C10          8.9210    -0.0100    -0.7040 ca         1 L87      -0.038000
     21 C11          9.5840     1.0870    -0.1540 ca         1 L87      -0.051300
     22 C26          8.7980     2.2770     0.3330 c3         1 L87      -0.053800
     23 C12         10.9590     1.0810    -0.0550 ca         1 L87      -0.129000
     24 C13         11.6820    -0.0130    -0.5000 ca         1 L87      -0.108000
     25 C14         11.0310    -1.1040    -1.0470 ca         1 L87      -0.136000
     26 C15          9.6560    -1.1120    -1.1450 ca         1 L87      -0.103000
     27 H1           1.3510    -0.0000     2.0280 hn         1 L87       0.368500
     28 H2           1.7810    -0.2850    -3.2480 h1         1 L87       0.059033
     29 H3           0.3120    -0.7310    -2.3690 h1         1 L87       0.059033
     30 H4           0.7120     0.9740    -2.6150 h1         1 L87       0.059033
     31 H5           8.2190    -0.5320    -3.3490 h1         1 L87       0.071200
     32 H6           6.5800    -0.5390    -4.0130 h1         1 L87       0.071200
     33 H7           8.1350     1.9330    -3.1670 hc         1 L87       0.058200
     34 H8           6.4950     1.9260    -3.8320 hc         1 L87       0.058200
     35 H9           7.3430     0.8930    -5.9130 hc         1 L87       0.042700
     36 H10          8.9830     0.9000    -5.2490 hc         1 L87       0.042700
     37 H11          7.2660     3.3700    -5.6940 hc         1 L87       0.036700
     38 H12          8.5840     2.8440    -6.7500 hc         1 L87       0.036700
     39 H13          8.9290     3.3530    -5.0910 hc         1 L87       0.036700
     40 H14          6.8360     0.0010     1.2660 h4         1 L87       0.205000
     41 H15          8.2620     2.0120     1.2370 hc         1 L87       0.050700
     42 H16          8.0900     2.5800    -0.4300 hc         1 L87       0.050700
     43 H17          9.4750     3.0960     0.5420 hc         1 L87       0.050700
     44 H18         11.4750     1.9320     0.3720 ha         1 L87       0.139000
     45 H19         12.7630    -0.0120    -0.4230 ha         1 L87       0.135000
     46 H20         11.6030    -1.9580    -1.3910 ha         1 L87       0.136000
     47 H21          9.1470    -1.9670    -1.5740 ha         1 L87       0.138000
@<TRIPOS>BOND
     1    15    16 1
     2    15    14 1
     3    17    16 1
     4    14    13 1
     5    25    26 ar
     6    25    24 ar
     7     5     4 1
     8    10    11 2
     9    10     6 1
    10    13    11 1
    11    13    18 1
    12    26    20 ar
    13    24    23 ar
    14    11    12 1
    15    20    18 1
    16    20    21 ar
    17    23    21 ar
    18    18    19 2
    19     6     4 1
    20     6     7 2
    21     4     2 1
    22    21    22 1
    23    12     7 1
    24    12    19 1
    25     7     8 1
    26     2     1 2
    27     2     3 1
    28     8     3 1
    29     8     9 2
    30     3    27 1
    31     5    28 1
    32     5    29 1
    33     5    30 1
    34    14    31 1
    35    14    32 1
    36    15    33 1
    37    15    34 1
    38    16    35 1
    39    16    36 1
    40    17    37 1
    41    17    38 1
    42    17    39 1
    43    19    40 1
    44    22    41 1
    45    22    42 1
    46    22    43 1
    47    23    44 1
    48    24    45 1
    49    25    46 1
    50    26    47 1
@<TRIPOS>SUBSTRUCTURE
     1 L87         1 TEMP              0 ****  ****    0 ROOT
