@<TRIPOS>MOLECULE
L87
   47    50     1     0     0
SMALL
bcc


@<TRIPOS>ATOM
      1 O2           0.0000     0.0000     0.0000 o          1 L87      -0.711500
      2 C17          1.2150     0.0000     0.0000 c          1 L87       0.592500
      3 N4           1.8710     0.0000     1.1730 ns         1 L87      -0.127500
      4 N5           1.8710    -0.0070    -1.1760 n          1 L87      -0.008300
      5 C18          1.1200    -0.0120    -2.4340 c3         1 L87       0.067300
      6 C2           3.2590    -0.0080    -1.1970 cc         1 L87       0.379200
      7 C3           3.9470    -0.0030     0.0150 cd         1 L87      -0.614200
      8 C16          3.2190     0.0000     1.2170 c          1 L87       0.683100
      9 O3           3.8010     0.0060     2.2880 o          1 L87      -0.694500
     10 N1           4.1620    -0.0140    -2.1730 nc         1 L87      -0.661000
     11 C1           5.3830    -0.0120    -1.6600 cd         1 L87       0.143000
     12 N2           5.2970    -0.0050    -0.3030 na         1 L87       0.542100
     13 N3           6.7130    -0.0160    -1.9920 na         1 L87       0.292100
     14 C6           7.2630    -0.0230    -3.3490 c3         1 L87      -0.041700
     15 C7           7.4520     1.4170    -3.8310 c3         1 L87      -0.051400
     16 C8           8.0260     1.4090    -5.2490 c3         1 L87      -0.022400
     17 C9           8.2150     2.8490    -5.7310 c3         1 L87       0.006900
     18 C5           7.4450    -0.0090    -0.8120 cc         1 L87      -0.166300
     19 C4           6.5770    -0.0050     0.2140 cd         1 L87      -0.329300
     20 C10          8.9210    -0.0100    -0.7040 ca         1 L87      -0.027000
     21 C11          9.5840     1.0870    -0.1540 ca         1 L87      -0.059300
     22 C26          8.7980     2.2770     0.3330 c3         1 L87       0.053200
     23 C12         10.9590     1.0810    -0.0550 ca         1 L87      -0.101000
     24 C13         11.6820    -0.0130    -0.5000 ca         1 L87      -0.082000
     25 C14         11.0310    -1.1040    -1.0470 ca         1 L87      -0.107000
     26 C15          9.6560    -1.1120    -1.1450 ca         1 L87      -0.083000
     27 H1           1.3510    -0.0000     2.0280 hn         1 L87       0.206500
     28 H2           1.7810    -0.2850    -3.2480 h1         1 L87       0.025367
     29 H3           0.3120    -0.7310    -2.3690 h1         1 L87       0.025367
     30 H4           0.7120     0.9740    -2.6150 h1         1 L87       0.025367
     31 H5           8.2190    -0.5320    -3.3490 h1         1 L87       0.045200
     32 H6           6.5800    -0.5390    -4.0130 h1         1 L87       0.045200
     33 H7           8.1350     1.9330    -3.1670 hc         1 L87       0.029200
     34 H8           6.4950     1.9260    -3.8320 hc         1 L87       0.029200
     35 H9           7.3430     0.8930    -5.9130 hc         1 L87       0.014700
     36 H10          8.9830     0.9000    -5.2490 hc         1 L87       0.014700
     37 H11          7.2660     3.3700    -5.6940 hc         1 L87       0.003367
     38 H12          8.5840     2.8440    -6.7500 hc         1 L87       0.003367
     39 H13          8.9290     3.3530    -5.0910 hc         1 L87       0.003367
     40 H14          6.8360     0.0010     1.2660 h4         1 L87       0.181000
     41 H15          8.2620     2.0120     1.2370 hc         1 L87       0.014033
     42 H16          8.0900     2.5800    -0.4300 hc         1 L87       0.014033
     43 H17          9.4750     3.0960     0.5420 hc         1 L87       0.014033
     44 H18         11.4750     1.9320     0.3720 ha         1 L87       0.112000
     45 H19         12.7630    -0.0120    -0.4230 ha         1 L87       0.105000
     46 H20         11.6030    -1.9580    -1.3910 ha         1 L87       0.108000
     47 H21          9.1470    -1.9670    -1.5740 ha         1 L87       0.108000
@<TRIPOS>BOND
     1     1     2 2   
     2     2     3 1   
     3     2     4 1   
     4     3     8 1   
     5     3    27 1   
     6     4     5 1   
     7     4     6 1   
     8     5    28 1   
     9     5    29 1   
    10     5    30 1   
    11     6     7 2   
    12     6    10 1   
    13     7     8 1   
    14     7    12 1   
    15     8     9 2   
    16    10    11 2   
    17    11    12 1   
    18    11    13 1   
    19    12    19 1   
    20    13    14 1   
    21    13    18 1   
    22    14    15 1   
    23    14    31 1   
    24    14    32 1   
    25    15    16 1   
    26    15    33 1   
    27    15    34 1   
    28    16    17 1   
    29    16    35 1   
    30    16    36 1   
    31    17    37 1   
    32    17    38 1   
    33    17    39 1   
    34    18    19 2   
    35    18    20 1   
    36    19    40 1   
    37    20    21 ar  
    38    20    26 ar  
    39    21    22 1   
    40    21    23 ar  
    41    22    41 1   
    42    22    42 1   
    43    22    43 1   
    44    23    24 ar  
    45    23    44 1   
    46    24    25 ar  
    47    24    45 1   
    48    25    26 ar  
    49    25    46 1   
    50    26    47 1   
@<TRIPOS>SUBSTRUCTURE
     1 L87         1 TEMP              0 ****  ****    0 ROOT
