@<TRIPOS>MOLECULE
molecule
   15    15     1     0     0
SMALL
bcc


@<TRIPOS>ATOM
      1 N2           0.0000     0.0000     0.0000 nv         1 L89      -0.979200
      2 C4           1.4000     0.0000     0.0000 ca         1 L89       0.024300
      3 C            2.1110     0.0000     1.2060 ca         1 L89       0.182600
      4 N            1.4450     0.0010     2.4310 nv         1 L89      -0.982200
      5 C3           2.1040    -0.0070    -1.1920 ca         1 L89       0.403200
      6 N1           3.4240    -0.0080    -1.1980 nb         1 L89      -0.694000
      7 C2           4.1260    -0.0020    -0.0810 ca         1 L89       0.412200
      8 C1           3.5030    -0.0000     1.1510 ca         1 L89      -0.270300
      9 H1          -0.5000    -0.8670    -0.0170 hn         1 L89       0.427800
     10 H2          -0.5000     0.8670    -0.0200 hn         1 L89       0.427800
     11 H3           1.2210     0.8680     2.8790 hn         1 L89       0.430800
     12 H4           1.2210    -0.8650     2.8800 hn         1 L89       0.430800
     13 H5           1.5640    -0.0120    -2.1320 h4         1 L89       0.025100
     14 H6           5.2080    -0.0030    -0.1310 h4         1 L89       0.020100
     15 H7           4.0880     0.0020     2.0620 ha         1 L89       0.140000
@<TRIPOS>BOND
     1     4     3 1
     2     1     2 1
     3     3     2 ar
     4     3     8 ar
     5     2     5 ar
     6     8     7 ar
     7     5     6 ar
     8     7     6 ar
     9     1     9 1
    10     1    10 1
    11     4    11 1
    12     4    12 1
    13     5    13 1
    14     7    14 1
    15     8    15 1
@<TRIPOS>SUBSTRUCTURE
     1 L89         1 TEMP              0 ****  ****    0 ROOT
