@<TRIPOS>MOLECULE
L8B
   53    56     1     0     0
SMALL
bcc


@<TRIPOS>ATOM
      1 CAA         0.2630   -0.7410   -0.5370 c3        1 L8B     -0.139400
      2 CAW         1.6770   -1.0890   -0.3090 cc        1 L8B      0.325600
      3 CAK         2.5390   -0.4570    0.6970 cc        1 L8B     -0.322600
      4 NAQ         2.4020   -2.0110   -0.9780 nd        1 L8B     -0.332300
      5 OAT         3.6300   -2.0270   -0.5090 os        1 L8B     -0.104100
      6 CAZ         3.7600   -1.0770    0.5370 cd        1 L8B      0.219000
      7 CAM         5.0850   -0.9370    1.1470 c3        1 L8B     -0.165700
      8 CAU         5.4670   -2.1460    1.9770 c         1 L8B      0.677100
      9 OAB         4.8350   -3.2220    1.9480 o         1 L8B     -0.627100
     10 N           6.5400   -2.0440    2.8730 n         1 L8B     -0.475800
     11 CD2         7.4440   -0.9020    2.8710 c3        1 L8B      0.066000
     12 CG          8.8680   -1.4170    3.1990 c3        1 L8B      0.135100
     13 OD1         9.6220   -1.2770    2.0120 oh        1 L8B     -0.587800
     14 CB          8.7040   -2.8970    3.5810 c3        1 L8B     -0.128400
     15 CA          7.2220   -3.2480    3.3230 c3        1 L8B      0.041700
     16 C           6.5860   -3.8240    4.6010 c         1 L8B      0.534100
     17 O           7.1160   -3.9520    5.6930 o         1 L8B     -0.416100
     18 NAR         5.1650   -4.2950    4.4490 n4        1 L8B     -0.677800
     19 CAL         4.7670   -5.4050    5.3780 c3        1 L8B      0.174100
     20 CAX         5.1740   -6.7370    4.8530 ca        1 L8B     -0.190300
     21 CAF         6.2030   -7.4540    5.4740 ca        1 L8B     -0.095500
     22 CAH         6.5500   -8.7190    5.0130 ca        1 L8B     -0.113000
     23 CAE         4.4940   -7.2970    3.7640 ca        1 L8B     -0.095500
     24 CAG         4.8410   -8.5590    3.2960 ca        1 L8B     -0.113000
     25 CAY         5.8740   -9.2840    3.9170 ca        1 L8B     -0.052500
     26 CBA         6.2210  -10.5870    3.4290 cc        1 L8B      0.154900
     27 CAJ         5.7470  -11.4120    2.4070 cd        1 L8B      0.294900
     28 NAP         6.4810  -12.6020    2.3970 nd        1 L8B     -0.660000
     29 CAI         7.3680  -12.4950    3.3830 cc        1 L8B      0.519300
     30 OAS         7.2710  -11.2790    4.0660 os        1 L8B     -0.380800
     31 HAA1       -0.2610   -1.5120   -1.1550 hc        1 L8B      0.066700
     32 HAA2       -0.2640   -0.6470    0.4450 hc        1 L8B      0.066700
     33 HAA3        0.2030    0.2410   -1.0720 hc        1 L8B      0.066700
     34 HAK         2.2430    0.3280    1.3830 ha        1 L8B      0.179000
     35 HAM1        5.1010   -0.0080    1.7800 hc        1 L8B      0.108700
     36 HAM2        5.8600   -0.8270    0.3330 hc        1 L8B      0.108700
     37 HD21        7.4570   -0.3840    1.8720 h1        1 L8B      0.085700
     38 HD22        7.1040   -0.1770    3.6600 h1        1 L8B      0.085700
     39 HA          7.1460   -4.0640    2.5380 h1        1 L8B      0.112700
     40 HG          9.3240   -0.8260    4.0360 h1        1 L8B      0.076700
     41 HD1        10.5560   -1.3470    2.2480 ho        1 L8B      0.427000
     42 HB1C        9.3540   -3.5410    2.9350 hc        1 L8B      0.096200
     43 HB2C        8.9880   -3.0630    4.6490 hc        1 L8B      0.096200
     44 HAR         5.0280   -4.6060    3.4680 hn        1 L8B      0.475800
     45 HAL1        3.6430   -5.3560    5.4790 hx        1 L8B      0.112700
     46 HAL2        5.2330   -5.2050    6.3870 hx        1 L8B      0.112700
     47 HAF         6.7360   -7.0240    6.3380 ha        1 L8B      0.145000
     48 HAE         3.6690   -6.7480    3.2810 ha        1 L8B      0.145000
     49 HAH         7.3540   -9.2900    5.5060 ha        1 L8B      0.164500
     50 HAG         4.3020   -8.9970    2.4410 ha        1 L8B      0.164500
     51 HAJ         4.9420  -11.2410    1.6900 h4        1 L8B      0.061100
     52 HAI         8.1380  -13.1850    3.7370 h5        1 L8B      0.102100
     53 HAR2        4.5530   -3.4840    4.5990 hn        1 L8B      0.475800
@<TRIPOS>BOND
     1    1    2 1   
     2    1   31 1   
     3    1   32 1   
     4    1   33 1   
     5    2    3 1   
     6    2    4 2   
     7    3    6 2   
     8    3   34 1   
     9    4    5 1   
    10    5    6 1   
    11    6    7 1   
    12    7    8 1   
    13    7   35 1   
    14    7   36 1   
    15    8    9 2   
    16    8   10 1   
    17   10   11 1   
    18   10   15 1   
    19   11   12 1   
    20   11   37 1   
    21   11   38 1   
    22   12   13 1   
    23   12   14 1   
    24   12   40 1   
    25   13   41 1   
    26   14   15 1   
    27   14   42 1   
    28   14   43 1   
    29   15   16 1   
    30   15   39 1   
    31   16   17 2   
    32   16   18 1   
    33   18   19 1   
    34   18   44 1   
    35   18   53 1   
    36   19   20 1   
    37   19   45 1   
    38   19   46 1   
    39   20   21 ar  
    40   20   23 ar  
    41   21   22 ar  
    42   21   47 1   
    43   22   25 ar  
    44   22   49 1   
    45   23   24 ar  
    46   23   48 1   
    47   24   25 ar  
    48   24   50 1   
    49   25   26 1   
    50   26   27 2   
    51   26   30 1   
    52   27   28 1   
    53   27   51 1   
    54   28   29 2   
    55   29   30 1   
    56   29   52 1   
@<TRIPOS>SUBSTRUCTURE
     1 L8B         1 TEMP              0 ****  ****    0 ROOT
