@<TRIPOS>MOLECULE
L8G
   67    69     1     0     0
SMALL
bcc


@<TRIPOS>ATOM
      1 C1          2.7770    1.8590   -0.2950 c3        1 L8G      0.072700
      2 C2          2.5710    0.4340    0.1540 c3        1 L8G     -0.092200
      3 C3          1.1870    0.1770    0.6120 c2        1 L8G     -0.029200
      4 C4          0.7770   -0.4490    1.7250 c2        1 L8G     -0.343200
      5 C5          1.6560   -1.0710    2.7580 c3        1 L8G      0.207700
      6 C6          2.3970    0.5660    4.4980 c         1 L8G      0.530100
      7 C7          2.2340    2.0470    4.1780 c3        1 L8G      0.058500
      8 C8          2.5960    2.8990    5.4310 c3        1 L8G     -0.068700
      9 C9          1.9660    2.3660    6.6950 c3        1 L8G     -0.121600
     10 C10         4.1040    2.9820    5.5680 c3        1 L8G     -0.121600
     11 C11        -0.1620    2.9860    4.3830 c         1 L8G      0.537100
     12 C12        -1.4060    2.0840    4.4870 c3        1 L8G      0.102200
     13 C13        -2.1130    2.1880    3.1220 c3        1 L8G     -0.117100
     14 C14        -2.3530    2.6430    5.5860 c3        1 L8G     -0.107300
     15 C15        -1.7180    0.2240    5.8250 ce        1 L8G      0.410200
     16 C16        -1.6590   -1.1900    6.2640 ca        1 L8G      0.339000
     17 C17        -2.1790   -1.5090    7.5420 ca        1 L8G     -0.160300
     18 C18        -2.2770   -2.8520    7.9110 ca        1 L8G     -0.050000
     19 C19        -1.8970   -3.8370    6.9960 ca        1 L8G     -0.153300
     20 C20        -1.3870   -3.4290    5.7440 ca        1 L8G      0.329600
     21 C21        -1.1760   -4.4970    4.6980 c3        1 L8G      0.065500
     22 C22         0.1600   -3.1520    3.0240 c         1 L8G      0.540100
     23 C23         1.5400   -2.6050    2.7720 c3        1 L8G     -0.184400
     24 N1          1.3780   -0.4730    4.1220 n4        1 L8G     -0.725800
     25 N2          0.9660    2.4740    3.5020 n4        1 L8G     -0.685800
     26 N3         -1.0220    0.7120    4.8170 n2        1 L8G     -0.772900
     27 N4         -1.2130   -2.1320    5.3950 nb        1 L8G     -0.705000
     28 N5          0.0960   -4.3730    3.9200 n4        1 L8G     -0.668800
     29 O1          3.3950    0.1110    5.0400 o         1 L8G     -0.374100
     30 O2         -0.0330    4.1100    4.8300 o         1 L8G     -0.359100
     31 O3         -0.8850   -2.7710    2.5270 o         1 L8G     -0.358100
     32 S1          2.7930    2.9070    1.1670 sh        1 L8G     -0.613900
     33 S2         -2.8000    1.2650    6.6240 ss        1 L8G      0.049700
     34 H1          1.9680    2.2040   -0.9830 h1        1 L8G      0.115700
     35 H2          3.7600    1.9610   -0.8200 h1        1 L8G      0.115700
     36 H3          3.3430    0.1700    0.9260 hc        1 L8G      0.098200
     37 H4          2.7640   -0.2390   -0.7380 hc        1 L8G      0.098200
     38 H5          0.4080    0.5380   -0.0970 ha        1 L8G      0.179000
     39 H6         -0.3080   -0.6130    1.8810 ha        1 L8G      0.175000
     40 H7          2.7530   -0.8650    2.5290 hx        1 L8G      0.127700
     41 H8          3.0680    2.2440    3.3970 hx        1 L8G      0.188700
     42 H9          2.2210    3.9520    5.2500 hc        1 L8G      0.110700
     43 H10         2.1570    3.0850    7.5340 hc        1 L8G      0.071533
     44 H11         2.4090    1.3830    6.9890 hc        1 L8G      0.071533
     45 H12         0.8610    2.2550    6.5790 hc        1 L8G      0.071533
     46 H13         4.5570    1.9790    5.7600 hc        1 L8G      0.071533
     47 H14         4.3530    3.6440    6.4380 hc        1 L8G      0.071533
     48 H15         4.5690    3.4260    4.6540 hc        1 L8G      0.071533
     49 H16        -1.5200    1.7060    2.3090 hc        1 L8G      0.083367
     50 H17        -2.2910    3.2640    2.8710 hc        1 L8G      0.083367
     51 H18        -3.1080    1.6750    3.1740 hc        1 L8G      0.083367
     52 H19        -3.2780    3.0850    5.1310 h1        1 L8G      0.145700
     53 H20        -1.8730    3.4460    6.2010 h1        1 L8G      0.145700
     54 H21        -2.5130   -0.7140    8.2340 ha        1 L8G      0.194000
     55 H22        -2.6710   -3.1330    8.9070 ha        1 L8G      0.208000
     56 H23        -2.0130   -4.9050    7.2470 ha        1 L8G      0.192000
     57 H24        -2.0390   -4.4550    3.9610 hx        1 L8G      0.145700
     58 H25        -1.1670   -5.5160    5.1910 hx        1 L8G      0.145700
     59 H26         2.3050   -3.0280    3.4810 hc        1 L8G      0.137200
     60 H27         1.8300   -2.9540    1.7310 hc        1 L8G      0.137200
     61 H28         1.4390   -1.2200    4.8270 hn        1 L8G      0.487300
     62 H29         1.2470    3.2620    2.8650 hn        1 L8G      0.479800
     63 H30         0.1780   -5.2090    3.3190 hn        1 L8G      0.473800
     64 H31         3.3200    4.0430    0.6620 hs        1 L8G      0.346800
     65 H121        0.3830   -0.0910    4.1720 hn        1 L8G      0.487300
     66 H221        0.6110    1.7280    2.8880 hn        1 L8G      0.479800
     67 H52         0.8890   -4.3680    4.5710 hn        1 L8G      0.473800
@<TRIPOS>BOND
     1    1    2 1   
     2    1   32 1   
     3    1   34 1   
     4    1   35 1   
     5    2    3 1   
     6    2   36 1   
     7    2   37 1   
     8    3    4 2   
     9    3   38 1   
    10    4    5 1   
    11    4   39 1   
    12    5   23 1   
    13    5   24 1   
    14    5   40 1   
    15    6    7 1   
    16    6   24 1   
    17    6   29 2   
    18    7    8 1   
    19    7   25 1   
    20    7   41 1   
    21    8    9 1   
    22    8   10 1   
    23    8   42 1   
    24    9   43 1   
    25    9   44 1   
    26    9   45 1   
    27   10   46 1   
    28   10   47 1   
    29   10   48 1   
    30   11   12 1   
    31   11   25 1   
    32   11   30 2   
    33   12   13 1   
    34   12   14 1   
    35   12   26 1   
    36   13   49 1   
    37   13   50 1   
    38   13   51 1   
    39   14   33 1   
    40   14   52 1   
    41   14   53 1   
    42   15   16 1   
    43   15   26 2   
    44   15   33 1   
    45   16   17 ar  
    46   16   27 ar  
    47   17   18 ar  
    48   17   54 1   
    49   18   19 ar  
    50   18   55 1   
    51   19   20 ar  
    52   19   56 1   
    53   20   21 1   
    54   20   27 ar  
    55   21   28 1   
    56   21   57 1   
    57   21   58 1   
    58   22   23 1   
    59   22   28 1   
    60   22   31 2   
    61   23   59 1   
    62   23   60 1   
    63   24   61 1   
    64   24   65 1   
    65   25   62 1   
    66   25   66 1   
    67   28   63 1   
    68   28   67 1   
    69   32   64 1   
@<TRIPOS>SUBSTRUCTURE
     1 L8G         1 TEMP              0 ****  ****    0 ROOT
