@<TRIPOS>MOLECULE
L8H
   24    25     1     0     0
SMALL
bcc


@<TRIPOS>ATOM
      1 N            0.0000     0.0000     0.0000 nv         1 L8H      -0.566200
      2 CAA          1.6300    -0.0070     4.6210 c3         1 L8H       0.243700
      3 CAF          6.0520     0.0000     0.0000 ca         1 L8H      -0.087000
      4 CAG          6.2070     0.0000     1.3840 ca         1 L8H      -0.118000
      5 CAH          4.8130     0.0010    -0.5660 ca         1 L8H      -0.103000
      6 CAI          5.1260    -0.0020     2.2110 ca         1 L8H      -0.066000
      7 CAJ          1.4470    -0.0030     1.9340 ca         1 L8H      -0.243000
      8 CAK          2.3800     0.0010    -0.2920 ca         1 L8H      -0.150000
      9 OAQ          2.8300    -0.0050     3.8450 os         1 L8H      -0.307900
     10 CAT          1.2860    -0.0010     0.5450 ca         1 L8H       0.078600
     11 CAU          2.6910    -0.0030     2.4940 ca         1 L8H       0.173100
     12 CAV          3.6730     0.0000     0.2570 ca         1 L8H       0.004000
     13 CAW          3.8330    -0.0020     1.6650 ca         1 L8H      -0.062000
     14 HN          -0.4500    -0.8660    -0.2220 hn         1 L8H       0.273300
     15 HAA          1.0500    -0.8920     4.3860 h1         1 L8H      -0.001633
     16 HAAA         1.0490     0.8770     4.3900 h1         1 L8H      -0.001633
     17 HAAB         1.8820    -0.0100     5.6740 h1         1 L8H      -0.001633
     18 HAF          6.9290     0.0020    -0.6360 ha         1 L8H       0.099000
     19 HAG          7.2040    -0.0000     1.8090 ha         1 L8H       0.101000
     20 HAH          4.7070     0.0010    -1.6440 ha         1 L8H       0.107000
     21 HAI          5.2630    -0.0020     3.2860 ha         1 L8H       0.115000
     22 HAJ          0.5730    -0.0040     2.5740 ha         1 L8H       0.126000
     23 HAK          2.2450     0.1190    -1.3600 ha         1 L8H       0.114000
     24 H11         -0.4660     0.8670    -0.1820 hn         1 L8H       0.273300
@<TRIPOS>BOND
     1     1    10 1   
     2     1    14 1   
     3     1    24 1   
     4     2     9 1   
     5     2    15 1   
     6     2    16 1   
     7     2    17 1   
     8     3     4 ar  
     9     3     5 ar  
    10     3    18 1   
    11     4     6 ar  
    12     4    19 1   
    13     5    12 ar  
    14     5    20 1   
    15     6    13 ar  
    16     6    21 1   
    17     7    10 ar  
    18     7    11 ar  
    19     7    22 1   
    20     8    10 ar  
    21     8    12 ar  
    22     8    23 1   
    23     9    11 1   
    24    11    13 ar  
    25    12    13 ar  
@<TRIPOS>SUBSTRUCTURE
     1 L8H         1 TEMP              0 ****  ****    0 ROOT
