@<TRIPOS>MOLECULE
molecule
   50    55     1     0     0
SMALL
bcc


@<TRIPOS>ATOM
      1 F1           0.0000     0.0000     0.0000 f          1 L8I      -0.110900
      2 C2           1.3510     0.0000     0.0000 ca         1 L8I       0.176900
      3 C3           2.0520     0.0000     1.2070 cp         1 L8I      -0.184500
      4 C4           3.4450     0.0000     1.1960 ca         1 L8I      -0.091000
      5 C6           4.1240    -0.0000    -0.0040 ca         1 L8I      -0.152000
      6 C8           3.4260     0.0000    -1.1980 ca         1 L8I      -0.093000
      7 C10          2.0430    -0.0050    -1.1980 ca         1 L8I      -0.178000
      8 C12          1.3170     0.0010     2.4940 cp         1 L8I       0.484800
      9 N13         -0.0110     0.0020     2.4950 nb         1 L8I      -0.681000
     10 C14         -0.7180     0.0150     3.6090 ca         1 L8I       0.434200
     11 C16         -0.0980     0.0290     4.8410 ca         1 L8I      -0.196600
     12 C17          1.3050     0.0030     4.8830 ca         1 L8I       0.043000
     13 C18          2.0240    -0.0040     3.6960 ca         1 L8I      -0.247300
     14 C20          1.9500    -0.0620     6.2070 cc         1 L8I      -0.122300
     15 N21          3.2500     0.1180     6.5800 na         1 L8I      -0.083100
     16 C23          3.3480    -0.0360     7.9040 cc         1 L8I      -0.068600
     17 C24          2.0810    -0.3390     8.4060 cd         1 L8I      -0.218600
     18 C25          1.2080    -0.3720     7.3230 cd         1 L8I      -0.052300
     19 C26         -0.2620    -0.6820     7.2470 c3         1 L8I      -0.006100
     20 C29         -0.9020     0.1080     6.1070 c3         1 L8I      -0.032100
     21 C32          1.8800    -0.5490     9.8500 c          1 L8I       0.752100
     22 N33          2.9130    -0.2840    10.6780 ns         1 L8I      -0.591900
     23 C35          4.1120     0.4290    10.2510 c3         1 L8I       0.131000
     24 C38          4.5290     0.0580     8.8300 cy         1 L8I      -0.035700
     25 C39          5.6860     0.9010     8.2810 cy         1 L8I       0.118800
     26 N42          6.2120    -0.3690     7.7290 nq         1 L8I      -0.675600
     27 C43          5.4760    -1.1440     8.7540 cy         1 L8I       0.118800
     28 C46          7.6630    -0.4690     7.9340 c3         1 L8I       0.116100
     29 O50          0.8150    -0.9480    10.2830 o          1 L8I      -0.640500
     30 H4           3.9950     0.0000     2.1300 ha         1 L8I       0.135000
     31 H6           5.2080     0.0020    -0.0120 ha         1 L8I       0.134000
     32 H8           3.9650    -0.0020    -2.1380 ha         1 L8I       0.136000
     33 H10          1.5010    -0.0050    -2.1360 ha         1 L8I       0.147000
     34 H14         -1.8000     0.0150     3.5560 h4         1 L8I       0.028100
     35 H18          3.0830     0.2230     3.7020 ha         1 L8I       0.133000
     36 HN21         4.0080     0.3310     5.9620 hn         1 L8I       0.308700
     37 H26         -0.7290    -0.3870     8.1790 hc         1 L8I       0.070200
     38 H26A        -0.3840    -1.7400     7.0470 hc         1 L8I       0.070200
     39 H29         -0.9630     1.1470     6.4070 hc         1 L8I       0.057200
     40 H29A        -1.8830    -0.3100     5.9130 hc         1 L8I       0.057200
     41 HN33         2.8540    -0.5910    11.6290 hn         1 L8I       0.325500
     42 H35          3.9190     1.4950    10.2920 h1         1 L8I       0.047700
     43 H35A         4.9230     0.1880    10.9270 h1         1 L8I       0.047700
     44 H39          5.3760     1.6030     7.5150 h1         1 L8I       0.067200
     45 H39A         6.3130     1.3210     9.0580 h1         1 L8I       0.067200
     46 H43          5.0040    -2.0350     8.3570 h1         1 L8I       0.067200
     47 H43A         6.0460    -1.2970     9.6630 h1         1 L8I       0.067200
     48 H46          7.9980    -1.4640     7.6640 h1         1 L8I       0.039700
     49 H46A         7.8950    -0.2800     8.9750 h1         1 L8I       0.039700
     50 H46B         8.1670     0.2620     7.3130 h1         1 L8I       0.039700
@<TRIPOS>BOND
     1     1     2 1
     2     2     3 ar
     3     2     7 ar
     4     3     4 ar
     5     3     8 1
     6     4     5 ar
     7     5     6 ar
     8     6     7 ar
     9     8     9 ar
    10     8    13 ar
    11     9    10 ar
    12    10    11 ar
    13    11    12 ar
    14    11    20 1
    15    12    13 ar
    16    12    14 1
    17    14    15 1
    18    14    18 2
    19    15    16 1
    20    16    17 2
    21    16    24 1
    22    17    18 1
    23    17    21 1
    24    18    19 1
    25    19    20 1
    26    21    22 1
    27    21    29 2
    28    22    23 1
    29    23    24 1
    30    24    25 1
    31    24    27 1
    32    25    26 1
    33    26    27 1
    34    26    28 1
    35     4    30 1
    36     5    31 1
    37     6    32 1
    38     7    33 1
    39    10    34 1
    40    13    35 1
    41    15    36 1
    42    19    37 1
    43    19    38 1
    44    20    39 1
    45    20    40 1
    46    22    41 1
    47    23    42 1
    48    23    43 1
    49    25    44 1
    50    25    45 1
    51    27    46 1
    52    27    47 1
    53    28    48 1
    54    28    49 1
    55    28    50 1
@<TRIPOS>SUBSTRUCTURE
     1 L8I         1 TEMP              0 ****  ****    0 ROOT
