@<TRIPOS>MOLECULE
L8I
   50    55     1     0     0
SMALL
bcc


@<TRIPOS>ATOM
      1 F1           0.0000     0.0000     0.0000 f          1 L8I      -0.113900
      2 C2           1.3510     0.0000     0.0000 ca         1 L8I       0.152900
      3 C3           2.0520     0.0000     1.2070 cp         1 L8I      -0.179500
      4 C4           3.4450     0.0000     1.1960 ca         1 L8I      -0.074000
      5 C6           4.1240    -0.0000    -0.0040 ca         1 L8I      -0.120000
      6 C8           3.4260     0.0000    -1.1980 ca         1 L8I      -0.068000
      7 C10          2.0430    -0.0050    -1.1980 ca         1 L8I      -0.142000
      8 C12          1.3170     0.0010     2.4940 cp         1 L8I       0.442800
      9 N13         -0.0110     0.0020     2.4950 nb         1 L8I      -0.567000
     10 C14         -0.7180     0.0150     3.6090 ca         1 L8I       0.416200
     11 C16         -0.0980     0.0290     4.8410 ca         1 L8I      -0.198600
     12 C17          1.3050     0.0030     4.8830 ca         1 L8I       0.066000
     13 C18          2.0240    -0.0040     3.6960 ca         1 L8I      -0.235300
     14 C20          1.9500    -0.0620     6.2070 cc         1 L8I      -0.348300
     15 N21          3.2500     0.1180     6.5800 na         1 L8I       0.542900
     16 C23          3.3480    -0.0360     7.9040 cc         1 L8I      -0.310600
     17 C24          2.0810    -0.3390     8.4060 cd         1 L8I      -0.221600
     18 C25          1.2080    -0.3720     7.3230 cd         1 L8I      -0.036300
     19 C26         -0.2620    -0.6820     7.2470 c3         1 L8I       0.060900
     20 C29         -0.9020     0.1080     6.1070 c3         1 L8I       0.039900
     21 C32          1.8800    -0.5490     9.8500 c          1 L8I       0.686100
     22 N33          2.9130    -0.2840    10.6780 ns         1 L8I      -0.206900
     23 C35          4.1120     0.4290    10.2510 c3         1 L8I       0.074000
     24 C38          4.5290     0.0580     8.8300 cy         1 L8I      -0.006700
     25 C39          5.6860     0.9010     8.2810 cy         1 L8I       0.132800
     26 N42          6.2120    -0.3690     7.7290 nq         1 L8I      -0.558600
     27 C43          5.4760    -1.1440     8.7540 cy         1 L8I       0.132800
     28 C46          7.6630    -0.4690     7.9340 c3         1 L8I       0.180100
     29 O50          0.8150    -0.9480    10.2830 o          1 L8I      -0.683500
     30 H4           3.9950     0.0000     2.1300 ha         1 L8I       0.109000
     31 H6           5.2080     0.0020    -0.0120 ha         1 L8I       0.106000
     32 H8           3.9650    -0.0020    -2.1380 ha         1 L8I       0.105000
     33 H10          1.5010    -0.0050    -2.1360 ha         1 L8I       0.120000
     34 H14         -1.8000     0.0150     3.5560 h4         1 L8I      -0.014900
     35 H18          3.0830     0.2230     3.7020 ha         1 L8I       0.115000
     36 HN21         4.0080     0.3310     5.9620 hn         1 L8I       0.109700
     37 H26         -0.7290    -0.3870     8.1790 hc         1 L8I       0.036200
     38 H26A        -0.3840    -1.7400     7.0470 hc         1 L8I       0.036200
     39 H29         -0.9630     1.1470     6.4070 hc         1 L8I       0.023700
     40 H29A        -1.8830    -0.3100     5.9130 hc         1 L8I       0.023700
     41 HN33         2.8540    -0.5910    11.6290 hn         1 L8I       0.180500
     42 H35          3.9190     1.4950    10.2920 h1         1 L8I       0.016700
     43 H35A         4.9230     0.1880    10.9270 h1         1 L8I       0.016700
     44 H39          5.3760     1.6030     7.5150 h1         1 L8I       0.035700
     45 H39A         6.3130     1.3210     9.0580 h1         1 L8I       0.035700
     46 H43          5.0040    -2.0350     8.3570 h1         1 L8I       0.035700
     47 H43A         6.0460    -1.2970     9.6630 h1         1 L8I       0.035700
     48 H46          7.9980    -1.4640     7.6640 h1         1 L8I       0.005367
     49 H46A         7.8950    -0.2800     8.9750 h1         1 L8I       0.005367
     50 H46B         8.1670     0.2620     7.3130 h1         1 L8I       0.005367
@<TRIPOS>BOND
     1     1     2 1   
     2     2     3 ar  
     3     2     7 ar  
     4     3     4 ar  
     5     3     8 1   
     6     4     5 ar  
     7     4    30 1   
     8     5     6 ar  
     9     5    31 1   
    10     6     7 ar  
    11     6    32 1   
    12     7    33 1   
    13     8     9 ar  
    14     8    13 ar  
    15     9    10 ar  
    16    10    11 ar  
    17    10    34 1   
    18    11    12 ar  
    19    11    20 1   
    20    12    13 ar  
    21    12    14 1   
    22    13    35 1   
    23    14    15 1   
    24    14    18 2   
    25    15    16 1   
    26    15    36 1   
    27    16    17 2   
    28    16    24 1   
    29    17    18 1   
    30    17    21 1   
    31    18    19 1   
    32    19    20 1   
    33    19    37 1   
    34    19    38 1   
    35    20    39 1   
    36    20    40 1   
    37    21    22 1   
    38    21    29 2   
    39    22    23 1   
    40    22    41 1   
    41    23    24 1   
    42    23    42 1   
    43    23    43 1   
    44    24    25 1   
    45    24    27 1   
    46    25    26 1   
    47    25    44 1   
    48    25    45 1   
    49    26    27 1   
    50    26    28 1   
    51    27    46 1   
    52    27    47 1   
    53    28    48 1   
    54    28    49 1   
    55    28    50 1   
@<TRIPOS>SUBSTRUCTURE
     1 L8I         1 TEMP              0 ****  ****    0 ROOT
