@<TRIPOS>MOLECULE
molecule
   31    31     1     0     0
SMALL
bcc


@<TRIPOS>ATOM
      1 P            0.0000     0.0000     0.0000 p5         1 L8P       1.046700
      2 N1           0.9350     0.2480     3.8300 n          1 L8P      -0.279000
      3 C2           1.0350    -1.0930     3.8750 c          1 L8P       0.855900
      4 O2           2.1100    -1.6220     3.6450 o          1 L8P      -0.560500
      5 N3          -0.0190    -1.8520     4.1660 nc         1 L8P      -0.643100
      6 C4          -1.2000    -1.3020     4.4200 cd         1 L8P       0.551500
      7 N4          -2.2820    -2.0970     4.7210 nz         1 L8P      -0.727600
      8 C5          -1.3380     0.1000     4.3810 cd         1 L8P      -0.422600
      9 C6          -0.2570     0.8590     4.0840 cc         1 L8P       0.161600
     10 C1'          2.1150     1.0570     3.5130 c3         1 L8P       0.093000
     11 C2'          2.1970     1.2670     1.9990 c3         1 L8P       0.094100
     12 C3'          3.4290     2.1130     1.6690 c3         1 L8P       0.032400
     13 O3'          4.5940     1.4910     2.2170 oh         1 L8P      -0.560800
     14 C4'          1.8230     0.0000     0.0000 c3         1 L8P      -0.055800
     15 O4'          2.3000     0.0000     1.3480 os         1 L8P      -0.398600
     16 OP1         -0.5360     0.0890    -1.5150 o          1 L8P      -0.896833
     17 OP2         -0.5360     1.2680     0.8350 o          1 L8P      -0.896833
     18 H5          -2.2950     0.5640     4.5860 ha         1 L8P       0.140000
     19 H6          -0.3380     1.9390     4.0480 h4         1 L8P       0.186000
     20 H1'          2.0380     2.0180     4.0080 h1         1 L8P       0.063700
     21 H3'          3.6030     1.9560     0.6110 h1         1 L8P       0.054700
     22 H4'          2.1840    -0.8850    -0.5110 h1         1 L8P       0.033200
     23 H1'A         3.0060     0.5450     3.8560 h1         1 L8P       0.063700
     24 H2'          1.3050     1.7780     1.6570 h1         1 L8P       0.136700
     25 H3'A         2.8480     3.0270     1.6510 h1         1 L8P       0.054700
     26 H4'A         2.1840     0.8840    -0.5110 h1         1 L8P       0.033200
     27 HN4         -1.9980    -3.0560     4.7340 hn         1 L8P       0.456467
     28 HN4A        -2.9930    -1.9690     4.0270 hn         1 L8P       0.456467
     29 O6          -0.4930    -1.2470     0.6260 o          1 L8P      -0.896833
     30 H12          5.3130     2.1020     2.2010 ho         1 L8P       0.368000
     31 H43         -2.6490    -1.8360     5.6150 hn         1 L8P       0.456467
@<TRIPOS>BOND
     1     1    14 1
     2     1    16 1
     3     1    17 1
     4     2     3 1
     5     2     9 1
     6     2    10 1
     7     3     4 2
     8     3     5 1
     9     5     6 2
    10     6     7 1
    11     6     8 1
    12     7    27 1
    13     7    28 1
    14     8     9 2
    15     8    18 1
    16     9    19 1
    17    10    11 1
    18    10    20 1
    19    10    23 1
    20    11    12 1
    21    11    15 1
    22    11    24 1
    23    12    13 1
    24    12    21 1
    25    12    25 1
    26    14    15 1
    27    14    22 1
    28    14    26 1
    29     1    29 1
    30    13    30 1
    31    31     7 1
@<TRIPOS>SUBSTRUCTURE
     1 L8P         1 TEMP              0 ****  ****    0 ROOT
