@<TRIPOS>MOLECULE
molecule
   49    52     1     0     0
SMALL
bcc


@<TRIPOS>ATOM
      1 N1           0.0000     0.0000     0.0000 nb         1 L8V      -0.769000
      2 C2           1.3240     0.0000     0.0000 ca         1 L8V       0.715200
      3 C3           2.0330     0.0000     1.1950 ca         1 L8V      -0.349300
      4 C4           1.3320     0.0010     2.3940 ca         1 L8V       0.181100
      5 O5           1.9870     0.0020     3.5820 os         1 L8V      -0.239200
      6 C6           2.5970     1.1530     3.9750 ca         1 L8V       0.075100
      7 C7           2.4150     2.3170     3.2450 ca         1 L8V      -0.164000
      8 C8           3.0340     3.4860     3.6410 ca         1 L8V      -0.146000
      9 C9           3.8380     3.4970     4.7730 ca         1 L8V       0.141600
     10 C10          4.0200     2.3310     5.5060 ca         1 L8V      -0.171000
     11 C11          3.3970     1.1620     5.1110 ca         1 L8V       0.128900
     12 F12          3.5680     0.0300     5.8270 f          1 L8V      -0.129900
     13 N13          4.4650     4.6820     5.1760 nu         1 L8V      -0.750300
     14 C14          5.6180     4.6290     5.9390 ca         1 L8V       0.751200
     15 C15          6.3580     5.8020     6.1690 ca         1 L8V      -0.352900
     16 C16          7.5200     5.7240     6.9450 ca         1 L8V      -0.019000
     17 C17          7.8910     4.4910     7.4520 ca         1 L8V      -0.321300
     18 C18          7.1110     3.3810     7.1820 ca         1 L8V       0.499200
     19 N19          6.0160     3.4760     6.4530 nb         1 L8V      -0.762000
     20 C20          5.9170     7.0910     5.6040 c          1 L8V       0.704700
     21 O21          4.8390     7.1740     5.0490 o          1 L8V      -0.627100
     22 N22          6.7100     8.1760     5.7030 ns         1 L8V      -0.462100
     23 C23          6.2270     9.4330     5.3210 ca         1 L8V       0.009600
     24 C24          4.8680     9.7090     5.3970 ca         1 L8V      -0.087000
     25 C25          4.3930    10.9500     5.0200 ca         1 L8V      -0.161000
     26 C26          5.2690    11.9200     4.5660 ca         1 L8V       0.141900
     27 C27          6.6260    11.6490     4.4880 ca         1 L8V      -0.190000
     28 C28          7.1070    10.4110     4.8700 ca         1 L8V       0.120900
     29 F29          4.8020    13.1320     4.1970 f          1 L8V      -0.132900
     30 C30         -0.6950     0.0010     1.1230 ca         1 L8V       0.479200
     31 C31         -0.0630     0.0010     2.3470 ca         1 L8V      -0.324300
     32 F32          8.4310    10.1490     4.8000 f          1 L8V      -0.138900
     33 N33          2.0130    -0.0020    -1.2080 nv         1 L8V      -1.010500
     34 H3           3.1170    -0.0000     1.1920 ha         1 L8V       0.149000
     35 H7           1.7880     2.3090     2.3610 ha         1 L8V       0.153000
     36 H8           2.8920     4.3950     3.0700 ha         1 L8V       0.141000
     37 H10          4.6450     2.3390     6.3910 ha         1 L8V       0.208000
     38 HN13         4.0560     5.5660     4.9490 hn         1 L8V       0.500800
     39 H16          8.1150     6.6070     7.1430 ha         1 L8V       0.135000
     40 H17          8.7860     4.3960     8.0540 ha         1 L8V       0.145000
     41 H18          7.4010     2.4170     7.5820 h4         1 L8V       0.031100
     42 HN22         7.6510     8.0790     6.0290 hn         1 L8V       0.337500
     43 H24          4.1810     8.9500     5.7530 ha         1 L8V       0.177000
     44 H25          3.3320    11.1640     5.0800 ha         1 L8V       0.155000
     45 H27          7.3110    12.4110     4.1340 ha         1 L8V       0.164000
     46 H30         -1.7780     0.0020     1.0810 h4         1 L8V       0.027100
     47 H31         -0.6420     0.0020     3.2630 ha         1 L8V       0.151000
     48 HN33         3.0140    -0.0070    -1.2130 hn         1 L8V       0.441800
     49 HN3A         1.5080    -0.0030    -2.0720 hn         1 L8V       0.441800
@<TRIPOS>BOND
     1     1     2 ar
     2     1    30 ar
     3     2     3 ar
     4     2    33 1
     5     3     4 ar
     6     4     5 1
     7     4    31 ar
     8     5     6 1
     9     6     7 ar
    10     6    11 ar
    11     7     8 ar
    12     8     9 ar
    13     9    10 ar
    14     9    13 1
    15    10    11 ar
    16    11    12 1
    17    13    14 1
    18    14    15 ar
    19    14    19 ar
    20    15    16 ar
    21    15    20 1
    22    16    17 ar
    23    17    18 ar
    24    18    19 ar
    25    20    21 2
    26    20    22 1
    27    22    23 1
    28    23    24 ar
    29    23    28 ar
    30    24    25 ar
    31    25    26 ar
    32    26    27 ar
    33    26    29 1
    34    27    28 ar
    35    28    32 1
    36    30    31 ar
    37     3    34 1
    38     7    35 1
    39     8    36 1
    40    10    37 1
    41    13    38 1
    42    16    39 1
    43    17    40 1
    44    18    41 1
    45    22    42 1
    46    24    43 1
    47    25    44 1
    48    27    45 1
    49    30    46 1
    50    31    47 1
    51    33    48 1
    52    33    49 1
@<TRIPOS>SUBSTRUCTURE
     1 L8V         1 TEMP              0 ****  ****    0 ROOT
