@<TRIPOS>MOLECULE
L90
   50    54     1     0     0
SMALL
bcc


@<TRIPOS>ATOM
      1 O3           0.0000     0.0000     0.0000 o          1 L90      -0.693500
      2 C16          1.2180     0.0000     0.0000 c          1 L90       0.683100
      3 N4           1.9000     0.0000     1.1640 ns         1 L90      -0.127500
      4 C3           1.9280    -0.0060    -1.2130 cc         1 L90      -0.614200
      5 N2           1.5630    -0.0130    -2.5520 na         1 L90       0.543100
      6 C4           0.4990    -0.0160    -3.4290 cc         1 L90      -0.326300
      7 C5           0.9880    -0.0220    -4.6840 cd         1 L90      -0.172300
      8 N3           2.3740    -0.0220    -4.6020 na         1 L90       0.294100
      9 C6           3.3060    -0.0290    -5.7330 c3         1 L90      -0.041700
     10 C7           3.7220     1.4070    -6.0580 c3         1 L90      -0.052400
     11 C8           4.6370     1.4070    -7.2850 c3         1 L90      -0.022400
     12 C9           5.0530     2.8430    -7.6100 c3         1 L90       0.006900
     13 C1           2.7150    -0.0170    -3.2740 cc         1 L90       0.143000
     14 N1           3.7490    -0.0140    -2.4460 nd         1 L90      -0.663000
     15 C2           3.3210    -0.0070    -1.1850 cd         1 L90       0.379200
     16 N5           3.9640    -0.0020     0.0430 n          1 L90      -0.005300
     17 C18          5.4280    -0.0010     0.1030 c3         1 L90       0.067300
     18 C17          3.2440    -0.0010     1.1800 c          1 L90       0.590500
     19 O2           3.8230    -0.0000     2.2500 o          1 L90      -0.711500
     20 C10          0.1900    -0.0280    -5.9270 ca         1 L90       0.051000
     21 C15          0.0560    -1.2140    -6.6810 ca         1 L90      -0.245900
     22 C29          0.5460    -2.5300    -6.5210 cc         1 L90       0.428800
     23 N28          0.1220    -3.2570    -7.5160 nd         1 L90      -0.628100
     24 N27         -0.6610    -2.4730    -8.3740 na         1 L90       0.422900
     25 C14         -0.7080    -1.2000    -7.8620 ca         1 L90      -0.192200
     26 C13         -1.3210    -0.0210    -8.2760 ca         1 L90      -0.100000
     27 C12         -1.1820     1.1300    -7.5310 ca         1 L90      -0.060000
     28 C11         -0.4380     1.1310    -6.3610 ca         1 L90      -0.097300
     29 C26         -0.3000     2.4030    -5.5630 c3         1 L90       0.060200
     30 H1           1.3970     0.0010     2.0290 hn         1 L90       0.206500
     31 H2          -0.5490    -0.0140    -3.1560 h4         1 L90       0.181000
     32 H3           2.8230    -0.4700    -6.5960 h1         1 L90       0.046700
     33 H4           4.1830    -0.6100    -5.4740 h1         1 L90       0.046700
     34 H5           2.8390     2.0000    -6.2660 hc         1 L90       0.029700
     35 H6           4.2500     1.8300    -5.2130 hc         1 L90       0.029700
     36 H7           5.5190     0.8140    -7.0770 hc         1 L90       0.014700
     37 H8           4.1080     0.9840    -8.1300 hc         1 L90       0.014700
     38 H9           5.5150     3.2920    -6.7390 hc         1 L90       0.003367
     39 H10          5.7600     2.8370    -8.4310 hc         1 L90       0.003367
     40 H11          4.1780     3.4170    -7.8910 hc         1 L90       0.003367
     41 H12          5.8300    -0.1020    -0.8970 h1         1 L90       0.025367
     42 H13          5.7710     0.9310     0.5380 h1         1 L90       0.025367
     43 H14          5.7650    -0.8290     0.7140 h1         1 L90       0.025367
     44 H15          1.1710    -2.8770    -5.7080 h4         1 L90       0.015800
     45 H17         -1.9050    -0.0070    -9.1880 ha         1 L90       0.107000
     46 H18         -1.6670     2.0420    -7.8590 ha         1 L90       0.111000
     47 H19         -0.6240     3.2440    -6.1640 hc         1 L90       0.012700
     48 H20          0.7360     2.5400    -5.2790 hc         1 L90       0.012700
     49 H21         -0.9130     2.3380    -4.6720 hc         1 L90       0.012700
     50 H16         -1.1070    -2.7860    -9.2130 hn         1 L90       0.156700
@<TRIPOS>BOND
     1     1     2 2   
     2     2     3 1   
     3     2     4 1   
     4     3    18 1   
     5     3    30 1   
     6     4     5 1   
     7     4    15 2   
     8     5     6 1   
     9     5    13 1   
    10     6     7 2   
    11     6    31 1   
    12     7     8 1   
    13     7    20 1   
    14     8     9 1   
    15     8    13 1   
    16     9    10 1   
    17     9    32 1   
    18     9    33 1   
    19    10    11 1   
    20    10    34 1   
    21    10    35 1   
    22    11    12 1   
    23    11    36 1   
    24    11    37 1   
    25    12    38 1   
    26    12    39 1   
    27    12    40 1   
    28    13    14 2   
    29    14    15 1   
    30    15    16 1   
    31    16    17 1   
    32    16    18 1   
    33    17    41 1   
    34    17    42 1   
    35    17    43 1   
    36    18    19 2   
    37    20    21 ar  
    38    20    28 ar  
    39    21    22 1   
    40    21    25 ar  
    41    22    23 2   
    42    22    44 1   
    43    23    24 1   
    44    24    25 1   
    45    24    50 1   
    46    25    26 ar  
    47    26    27 ar  
    48    26    45 1   
    49    27    28 ar  
    50    27    46 1   
    51    28    29 1   
    52    29    47 1   
    53    29    48 1   
    54    29    49 1   
@<TRIPOS>SUBSTRUCTURE
     1 L90         1 TEMP              0 ****  ****    0 ROOT
