@<TRIPOS>MOLECULE
L92
   56    59     1     0     0
SMALL
bcc


@<TRIPOS>ATOM
      1 O2          2.5720   -0.8430   -2.0740 o         1 L92     -0.818800
      2 C1          2.6800   -1.4510   -0.9760 c         1 L92      0.922600
      3 O1          3.1620   -2.6010   -0.8160 o         1 L92     -0.818800
      4 C2          2.2130   -0.6400    0.2960 c3        1 L92     -0.098000
      5 N1          1.2410   -1.3440    1.1000 na        1 L92     -0.015100
      6 C13         0.2610   -0.7240    1.8760 cc        1 L92     -0.161300
      7 C12        -0.4530   -1.7140    2.5680 cd        1 L92     -0.239500
      8 C11         0.1210   -2.9760    2.2090 cd        1 L92     -0.239500
      9 C10         1.1680   -2.7150    1.3080 cc        1 L92     -0.161300
     10 C3          3.4730   -0.2380    1.0920 c3        1 L92     -0.051100
     11 C4          3.9490    1.1330    0.7620 ca        1 L92     -0.058300
     12 C9          4.3860    1.9870    1.7810 ca        1 L92     -0.132000
     13 C8          4.8670    3.2610    1.4840 ca        1 L92     -0.136500
     14 C7          4.9180    3.7050    0.1600 ca        1 L92     -0.109300
     15 C6          4.4750    2.8530   -0.8600 ca        1 L92     -0.136500
     16 C5          3.9970    1.5800   -0.5660 ca        1 L92     -0.132000
     17 C14         5.4240    5.0650   -0.1700 c3        1 L92     -0.026100
     18 C15         6.8030    5.0060   -0.8000 c3        1 L92     -0.078400
     19 C16         7.2230    6.3720   -1.3110 c3        1 L92     -0.103700
     20 C17         8.5340    6.3210   -1.9990 cc        1 L92      0.246300
     21 C19         8.8820    5.5470   -3.1080 cd        1 L92      0.171700
     22 C26         8.1950    4.5620   -3.9410 c3        1 L92     -0.130400
     23 O3         10.2130    5.8340   -3.4290 os        1 L92     -0.384800
     24 C18        10.6240    6.7920   -2.4760 cd        1 L92      0.530900
     25 N2          9.6440    7.0960   -1.6180 nc        1 L92     -0.657000
     26 C20        11.9900    7.2740   -2.5730 ca        1 L92     -0.121500
     27 C25        12.4600    8.2320   -1.6630 ca        1 L92     -0.095000
     28 C24        13.7720    8.6930   -1.7590 ca        1 L92     -0.140000
     29 C23        14.6180    8.2060   -2.7550 ca        1 L92     -0.120000
     30 C22        14.1520    7.2530   -3.6600 ca        1 L92     -0.140000
     31 C21        12.8430    6.7850   -3.5740 ca        1 L92     -0.095000
     32 H2          1.7020    0.2960   -0.0780 h1        1 L92      0.061700
     33 H13         0.1330    0.3560    1.8690 h4        1 L92      0.177500
     34 H12        -1.2860   -1.5520    3.2420 ha        1 L92      0.125000
     35 H11        -0.1940   -3.9510    2.5600 ha        1 L92      0.125000
     36 H10         1.8520   -3.3880    0.7780 h4        1 L92      0.177500
     37 H31         3.2890   -0.3090    2.1970 hc        1 L92      0.060700
     38 H32         4.2870   -0.9760    0.8460 hc        1 L92      0.060700
     39 H9          4.3500    1.6510    2.8280 ha        1 L92      0.162000
     40 H8          5.2070    3.9190    2.2970 ha        1 L92      0.116500
     41 H6          4.5050    3.1950   -1.9050 ha        1 L92      0.116500
     42 H5          3.6440    0.9090   -1.3770 ha        1 L92      0.162000
     43 H141        5.4660    5.6990    0.7550 hc        1 L92      0.038200
     44 H142        4.7100    5.5620   -0.8810 hc        1 L92      0.038200
     45 H151        6.7950    4.2720   -1.6500 hc        1 L92      0.050700
     46 H152        7.5470    4.6360   -0.0480 hc        1 L92      0.050700
     47 H161        6.4570    6.7510   -2.0420 hc        1 L92      0.055700
     48 H162        7.2550    7.0970   -0.4550 hc        1 L92      0.055700
     49 H261        8.2740    3.5450   -3.4750 hc        1 L92      0.065033
     50 H262        7.1120    4.8310   -4.0250 hc        1 L92      0.065033
     51 H263        8.6460    4.5200   -4.9630 hc        1 L92      0.065033
     52 H25        11.7950    8.6170   -0.8740 ha        1 L92      0.153000
     53 H24        14.1390    9.4430   -1.0430 ha        1 L92      0.132500
     54 H23        15.6530    8.5720   -2.8250 ha        1 L92      0.129000
     55 H22        14.8180    6.8670   -4.4460 ha        1 L92      0.132500
     56 H21        12.4720    6.0310   -4.2860 ha        1 L92      0.153000
@<TRIPOS>BOND
     1    1    2 1   
     2    2    3 1   
     3    2    4 1   
     4    4    5 1   
     5    4   10 1   
     6    4   32 1   
     7    5    6 1   
     8    5    9 1   
     9    6    7 2   
    10    6   33 1   
    11    7    8 1   
    12    7   34 1   
    13    8    9 2   
    14    8   35 1   
    15    9   36 1   
    16   10   11 1   
    17   10   37 1   
    18   10   38 1   
    19   11   12 ar  
    20   11   16 ar  
    21   12   13 ar  
    22   12   39 1   
    23   13   14 ar  
    24   13   40 1   
    25   14   15 ar  
    26   14   17 1   
    27   15   16 ar  
    28   15   41 1   
    29   16   42 1   
    30   17   18 1   
    31   17   43 1   
    32   17   44 1   
    33   18   19 1   
    34   18   45 1   
    35   18   46 1   
    36   19   20 1   
    37   19   47 1   
    38   19   48 1   
    39   20   21 2   
    40   20   25 1   
    41   21   22 1   
    42   21   23 1   
    43   22   49 1   
    44   22   50 1   
    45   22   51 1   
    46   23   24 1   
    47   24   25 2   
    48   24   26 1   
    49   26   27 ar  
    50   26   31 ar  
    51   27   28 ar  
    52   27   52 1   
    53   28   29 ar  
    54   28   53 1   
    55   29   30 ar  
    56   29   54 1   
    57   30   31 ar  
    58   30   55 1   
    59   31   56 1   
@<TRIPOS>SUBSTRUCTURE
     1 L92         1 TEMP              0 ****  ****    0 ROOT
