@<TRIPOS>MOLECULE
molecule
   62    62     1     0     0
SMALL
bcc


@<TRIPOS>ATOM
      1 C1           0.0000     0.0000     0.0000 cc         1 L94      -0.118000
      2 C2           1.3950     0.0000     0.0000 cc         1 L94      -0.032500
      3 C3           2.0840     0.0000     1.1940 cd         1 L94      -0.032500
      4 C4           1.3860     0.0000     2.4020 cd         1 L94      -0.118000
      5 C5          -0.0090     0.0010     2.4010 cd         1 L94      -0.032500
      6 C6          -0.6970     0.0000     1.2080 cc         1 L94      -0.032500
      7 C11         -0.7400     0.0070    -1.2830 c2         1 L94       0.353000
      8 N111        -0.1890    -0.5850    -2.3990 nz         1 L94      -0.723400
      9 N114         3.3660     0.5950     3.7650 nz         1 L94      -0.723400
     10 C14          2.1260    -0.0000     3.6850 c2         1 L94       0.353000
     11 N21         -1.9110     0.5710    -1.3570 nu         1 L94      -0.495500
     12 N24          1.6050    -0.5640     4.7370 nu         1 L94      -0.495500
     13 C31         -2.6440     0.5770    -2.6250 c3         1 L94       0.124800
     14 C34          2.3370    -0.5650     6.0060 c3         1 L94       0.124800
     15 C41         -3.9800     1.2980    -2.4390 c3         1 L94      -0.134400
     16 C44          1.5090    -1.2850     7.0710 c3         1 L94      -0.134400
     17 C51         -4.7450     1.3040    -3.7640 c3         1 L94       0.114800
     18 C54          2.2740    -1.2860     8.3970 c3         1 L94       0.114800
     19 N61         -6.0280     1.9960    -3.5860 nx         1 L94      -0.652900
     20 N64          1.4780    -1.9770     9.4200 nx         1 L94      -0.652900
     21 C71         -5.7830     3.4100    -3.2730 c3         1 L94       0.081100
     22 C74          1.3330    -3.3930     9.0530 c3         1 L94       0.081100
     23 C81         -6.8130     1.8990    -4.8230 c3         1 L94       0.081100
     24 C84          2.1570    -1.8750    10.7190 c3         1 L94       0.081100
     25 H2           1.9370    -0.0000    -0.9380 ha         1 L94       0.194500
     26 H3           3.1670    -0.0000     1.1940 ha         1 L94       0.194500
     27 H5          -0.5510     0.0020     3.3390 ha         1 L94       0.194500
     28 H6          -1.7810     0.0010     1.2070 ha         1 L94       0.194500
     29 H111        -0.8720    -1.1700    -2.8380 hn         1 L94       0.526467
     30 H411         4.0710    -0.1120     3.8350 hn         1 L94       0.526467
     31 H11A         0.6000    -1.1390    -2.1280 hn         1 L94       0.526467
     32 H41A         3.4020     1.1830     4.5740 hn         1 L94       0.526467
     33 H121        -2.3110     1.0000    -0.5460 hn         1 L94       0.543800
     34 H424         0.7040    -0.9960     4.6780 hn         1 L94       0.543800
     35 H131        -2.0580     1.0900    -3.3780 h1         1 L94       0.134200
     36 H434         3.2830    -1.0760     5.8770 h1         1 L94       0.134200
     37 H13A        -2.8250    -0.4430    -2.9420 h1         1 L94       0.134200
     38 H43A         2.5180     0.4570     6.3190 h1         1 L94       0.134200
     39 H141        -3.7990     2.3170    -2.1220 hc         1 L94       0.102200
     40 H444         0.5630    -0.7740     7.2010 hc         1 L94       0.102200
     41 H14A        -4.5660     0.7830    -1.6870 hc         1 L94       0.102200
     42 H44A         1.3280    -2.3060     6.7580 hc         1 L94       0.102200
     43 H151        -4.1590     1.8190    -4.5170 hx         1 L94       0.124700
     44 H454         2.4560    -0.2650     8.7090 hx         1 L94       0.124700
     45 H15A        -4.9250     0.2840    -4.0820 hx         1 L94       0.124700
     46 H45A         3.2200    -1.7980     8.2680 hx         1 L94       0.124700
     47 H161        -6.5350     1.5700    -2.8350 hn         1 L94       0.462800
     48 H464         0.5730    -1.5540     9.4810 hn         1 L94       0.462800
     49 H171        -5.5960     3.5170    -2.2110 hx         1 L94       0.122700
     50 H474         1.1380    -3.9780     9.9440 hx         1 L94       0.122700
     51 H17A        -4.9200     3.7580    -3.8280 hx         1 L94       0.122700
     52 H47A         2.2460    -3.7400     8.5850 hx         1 L94       0.122700
     53 H17B        -6.6510     3.9970    -3.5480 hx         1 L94       0.122700
     54 H47B         0.5070    -3.5040     8.3610 hx         1 L94       0.122700
     55 H181        -7.7700     2.3880    -4.6830 hx         1 L94       0.122700
     56 H484         2.2850    -0.8310    10.9790 hx         1 L94       0.122700
     57 H18A        -6.9740     0.8560    -5.0680 hx         1 L94       0.122700
     58 H48A         3.1260    -2.3540    10.6590 hx         1 L94       0.122700
     59 H18B        -6.2760     2.3800    -5.6310 hx         1 L94       0.122700
     60 H48B         1.5590    -2.3650    11.4780 hx         1 L94       0.122700
     61 H113         0.1120     0.1240    -3.0380 hn         1 L94       0.526467
     62 H143         3.5230     1.1510     2.9480 hn         1 L94       0.526467
@<TRIPOS>BOND
     1     1     2 1
     2     1     6 1
     3     1     7 2
     4     2     3 2
     5     2    25 1
     6     3     4 1
     7     3    26 1
     8     4     5 1
     9     4    10 2
    10     5     6 2
    11     5    27 1
    12     6    28 1
    13     7     8 1
    14     7    11 1
    15     8    29 1
    16     8    31 1
    17     9    10 1
    18     9    30 1
    19     9    32 1
    20    10    12 1
    21    11    13 1
    22    11    33 1
    23    12    14 1
    24    12    34 1
    25    13    15 1
    26    13    35 1
    27    13    37 1
    28    14    16 1
    29    14    36 1
    30    14    38 1
    31    15    17 1
    32    15    39 1
    33    15    41 1
    34    16    18 1
    35    16    40 1
    36    16    42 1
    37    17    19 1
    38    17    43 1
    39    17    45 1
    40    18    20 1
    41    18    44 1
    42    18    46 1
    43    19    21 1
    44    19    23 1
    45    19    47 1
    46    20    22 1
    47    20    24 1
    48    20    48 1
    49    21    49 1
    50    21    51 1
    51    21    53 1
    52    22    50 1
    53    22    52 1
    54    22    54 1
    55    23    55 1
    56    23    57 1
    57    23    59 1
    58    24    56 1
    59    24    58 1
    60    24    60 1
    61    61     8 1
    62    62     9 1
@<TRIPOS>SUBSTRUCTURE
     1 L94         1 TEMP              0 ****  ****    0 ROOT
