@<TRIPOS>MOLECULE
L94
   62    64     1     0     0
SMALL
bcc


@<TRIPOS>ATOM
      1 C1           0.0000     0.0000     0.0000 ca         1 L94      -0.104500
      2 C2           1.3950     0.0000     0.0000 ca         1 L94       0.034000
      3 C3           2.0840     0.0000     1.1940 ca         1 L94       0.034000
      4 C4           1.3860     0.0000     2.4020 ca         1 L94      -0.104500
      5 C5          -0.0090     0.0010     2.4010 ca         1 L94       0.034000
      6 C6          -0.6970     0.0000     1.2080 ca         1 L94       0.034000
      7 C11         -0.7400     0.0070    -1.2830 c2         1 L94      -0.013500
      8 N111        -0.1890    -0.5850    -2.3990 nz         1 L94       0.798000
      9 N114         3.3660     0.5950     3.7650 nz         1 L94       0.798000
     10 C14          2.1260    -0.0000     3.6850 c2         1 L94      -0.013500
     11 N21         -1.9110     0.5710    -1.3570 n7         1 L94       0.052000
     12 N24          1.6050    -0.5640     4.7370 n7         1 L94       0.052000
     13 C31         -2.6440     0.5770    -2.6250 DU         1 L94      -0.105500
     14 C34          2.3370    -0.5650     6.0060 DU         1 L94      -0.105500
     15 C41         -3.9800     1.2980    -2.4390 c3         1 L94      -0.119500
     16 C44          1.5090    -1.2850     7.0710 c3         1 L94      -0.119500
     17 C51         -4.7450     1.3040    -3.7640 c3         1 L94      -0.246500
     18 C54          2.2740    -1.2860     8.3970 c3         1 L94      -0.246500
     19 N61         -6.0280     1.9960    -3.5860 nx         1 L94       0.720500
     20 N64          1.4780    -1.9770     9.4200 nx         1 L94       0.720500
     21 C71         -5.7830     3.4100    -3.2730 c3         1 L94      -0.268000
     22 C74          1.3330    -3.3930     9.0530 c3         1 L94      -0.268000
     23 C81         -6.8130     1.8990    -4.8230 c3         1 L94      -0.268000
     24 C84          2.1570    -1.8750    10.7190 c3         1 L94      -0.268000
     25 H2           1.9370    -0.0000    -0.9380 ha         1 L94       0.158500
     26 H3           3.1670    -0.0010     1.1940 ha         1 L94       0.158500
     27 H5          -0.5510     0.0020     3.3390 ha         1 L94       0.158500
     28 H6          -1.7810     0.0010     1.2070 ha         1 L94       0.158500
     29 H111         0.5830    -1.1590    -2.1250 hn         1 L94       0.087000
     30 H411         4.0670    -0.1100     3.8810 hn         1 L94       0.087000
     31 H11A        -0.8800    -1.1500    -2.8530 hn         1 L94       0.087000
     32 H41A         3.3870     1.2180     4.5480 hn         1 L94       0.087000
     33 H121        -1.7150     1.1880    -2.1200 DU         1 L94       0.295500
     34 H424         1.6660     0.2210     5.3540 DU         1 L94       0.295500
     35 H131        -2.8250    -0.4430    -2.9420 ha         1 L94       0.136000
     36 H434         3.2830    -1.0760     5.8770 ha         1 L94       0.136000
     37 H13A        -2.0580     1.0900    -3.3780 ha         1 L94       0.136000
     38 H43A         2.5180     0.4570     6.3190 ha         1 L94       0.136000
     39 H141        -4.5660     0.7830    -1.6870 hc         1 L94       0.117750
     40 H444         0.5630    -0.7740     7.2010 hc         1 L94       0.117750
     41 H14A        -3.7990     2.3170    -2.1220 hc         1 L94       0.117750
     42 H44A         1.3280    -2.3060     6.7580 hc         1 L94       0.117750
     43 H151        -4.1590     1.8180    -4.5170 hx         1 L94       0.131500
     44 H454         2.4560    -0.2650     8.7090 hx         1 L94       0.131500
     45 H15A        -4.9250     0.2840    -4.0820 hx         1 L94       0.131500
     46 H45A         3.2200    -1.7980     8.2680 hx         1 L94       0.131500
     47 H161        -6.5350     1.5700    -2.8350 hn         1 L94       0.062500
     48 H464         0.5730    -1.5540     9.4810 hn         1 L94       0.062500
     49 H171        -4.9280     3.7620    -3.8380 hx         1 L94       0.130333
     50 H474         0.5040    -3.5050     8.3660 hx         1 L94       0.130333
     51 H17A        -5.5830     3.5150    -2.2130 hx         1 L94       0.130333
     52 H47A         2.2440    -3.7390     8.5800 hx         1 L94       0.130333
     53 H17B        -6.6560     3.9950    -3.5350 hx         1 L94       0.130333
     54 H47B         1.1440    -3.9790     9.9450 hx         1 L94       0.130333
     55 H181        -6.9790     0.8560    -5.0650 hx         1 L94       0.130333
     56 H484         2.2770    -0.8310    10.9830 hx         1 L94       0.130333
     57 H18A        -6.2740     2.3760    -5.6320 hx         1 L94       0.130333
     58 H48A         3.1300    -2.3470    10.6570 hx         1 L94       0.130333
     59 H18B        -7.7680     2.3930    -4.6850 hx         1 L94       0.130333
     60 H48B         1.5630    -2.3720    11.4770 hx         1 L94       0.130333
     61 H113         0.1360     0.1240    -3.0270 hn         1 L94       0.087000
     62 H143         3.5420     1.1140     2.9280 hn         1 L94       0.087000
@<TRIPOS>BOND
     1     1     2 1   
     2     1     6 1   
     3     1     7 1   
     4     2     3 1   
     5     2    25 1   
     6     3     4 1   
     7     3    26 1   
     8     4     5 1   
     9     4    10 1   
    10     5     6 1   
    11     5    27 1   
    12     6    28 1   
    13     7     8 1   
    14     7    11 1   
    15     8    29 1   
    16     8    31 1   
    17     8    61 1   
    18     9    10 1   
    19     9    30 1   
    20     9    32 1   
    21     9    62 1   
    22    10    12 1   
    23    11    13 1   
    24    11    33 1   
    25    12    14 1   
    26    12    34 1   
    27    13    15 1   
    28    13    33 1   
    29    13    35 1   
    30    13    37 1   
    31    14    16 1   
    32    14    34 1   
    33    14    36 1   
    34    14    38 1   
    35    15    17 1   
    36    15    39 1   
    37    15    41 1   
    38    16    18 1   
    39    16    40 1   
    40    16    42 1   
    41    17    19 1   
    42    17    43 1   
    43    17    45 1   
    44    18    20 1   
    45    18    44 1   
    46    18    46 1   
    47    19    21 1   
    48    19    23 1   
    49    19    47 1   
    50    20    22 1   
    51    20    24 1   
    52    20    48 1   
    53    21    49 1   
    54    21    51 1   
    55    21    53 1   
    56    22    50 1   
    57    22    52 1   
    58    22    54 1   
    59    23    55 1   
    60    23    57 1   
    61    23    59 1   
    62    24    56 1   
    63    24    58 1   
    64    24    60 1   
@<TRIPOS>SUBSTRUCTURE
     1 L94         1 TEMP              0 ****  ****    0 ROOT
