@<TRIPOS>MOLECULE
molecule
   64    68     1     0     0
SMALL
bcc


@<TRIPOS>ATOM
      1 O1           0.0000     0.0000     0.0000 o          1 L96      -0.848800
      2 C24          1.2090     0.0000     0.0000 c          1 L96       0.893600
      3 O2           1.8790     0.0000     1.1630 o          1 L96      -0.848800
      4 C23          1.9620    -0.0070    -1.3050 c3         1 L96      -0.203400
      5 C22          0.9670    -0.0120    -2.4680 c3         1 L96       0.040300
      6 N2           1.7000    -0.0190    -3.7360 na         1 L96      -0.042400
      7 C12          2.1000     1.1050    -4.4240 cc         1 L96       0.024700
      8 C5           2.7570     0.7300    -5.5620 cd         1 L96      -0.088400
      9 C2           3.3490     1.6310    -6.5810 cd         1 L96      -0.211100
     10 C1           2.7150     2.1290    -7.6830 cc         1 L96      -0.065600
     11 C            1.2890     1.8590    -8.0890 c3         1 L96      -0.025800
     12 N1           3.5980     2.9080    -8.3430 na         1 L96      -0.053600
     13 N            4.8060     2.8950    -7.6370 nc         1 L96      -0.537800
     14 C3           4.6640     2.1350    -6.5830 cd         1 L96       0.353600
     15 C4           5.7230     1.8500    -5.5480 c3         1 L96      -0.112400
     16 C6           2.7640    -0.7390    -5.5820 ca         1 L96      -0.098800
     17 C7           3.2730    -1.6900    -6.4670 ca         1 L96      -0.077000
     18 C8           3.1150    -3.0210    -6.1990 ca         1 L96      -0.080300
     19 C25          3.6660    -4.0470    -7.1550 cx         1 L96      -0.067400
     20 C26          2.6740    -5.0230    -7.7930 cx         1 L96      -0.143900
     21 C27          3.6410    -5.5120    -6.7130 cx         1 L96      -0.143900
     22 C9           2.4520    -3.4340    -5.0520 ca         1 L96      -0.133000
     23 C10          1.9400    -2.5130    -4.1650 ca         1 L96      -0.132000
     24 C11          2.0950    -1.1520    -4.4160 ca         1 L96      -0.027200
     25 C13          1.8570     2.4970    -3.9970 ca         1 L96       0.009200
     26 C14          2.8850     3.4410    -4.0650 ca         1 L96      -0.138000
     27 C15          2.6540     4.7400    -3.6660 ca         1 L96      -0.099000
     28 C16          1.4070     5.1130    -3.1990 ca         1 L96      -0.224000
     29 C17          0.3790     4.1830    -3.1270 ca         1 L96       0.143100
     30 C18          0.5970     2.8770    -3.5310 ca         1 L96      -0.140000
     31 O           -0.8440     4.5560    -2.6670 os         1 L96      -0.321900
     32 C19         -0.9690     5.8880    -2.1620 c3         1 L96       0.140100
     33 C20         -1.2410     6.8480    -3.3220 c3         1 L96      -0.106100
     34 C21         -2.1290     5.9480    -1.1660 c3         1 L96      -0.106100
     35 H2           2.5840    -0.8930    -1.3580 hc         1 L96       0.044200
     36 H3           2.5860     0.8760    -1.3670 hc         1 L96       0.044200
     37 H4           0.3440    -0.8960    -2.4060 h1         1 L96       0.072700
     38 H5           0.3450     0.8730    -2.4150 h1         1 L96       0.072700
     39 H6           1.2770     1.2020    -8.9500 hc         1 L96       0.050700
     40 H7           0.8020     2.7930    -8.3400 hc         1 L96       0.050700
     41 H8           0.7630     1.3870    -7.2670 hc         1 L96       0.050700
     42 H9           3.4190     3.4090    -9.1910 hn         1 L96       0.318700
     43 H10          6.5160     1.2630    -5.9950 hc         1 L96       0.051700
     44 H11          5.2840     1.2990    -4.7260 hc         1 L96       0.051700
     45 H12          6.1290     2.7850    -5.1810 hc         1 L96       0.051700
     46 H13          3.8170    -1.3510    -7.3410 ha         1 L96       0.127000
     47 H14          4.5050    -3.7780    -7.7850 hc         1 L96       0.075700
     48 H15          2.9080    -5.3330    -8.8050 hc         1 L96       0.070950
     49 H16          1.6430    -4.9110    -7.4820 hc         1 L96       0.070950
     50 H17          4.4660    -6.1200    -7.0640 hc         1 L96       0.070950
     51 H18          3.2010    -5.6990    -5.7410 hc         1 L96       0.070950
     52 H19          2.3270    -4.4300    -4.6450 ha         1 L96       0.127000
     53 H20          1.3330    -2.9020    -3.3570 ha         1 L96       0.138000
     54 H21          3.8630     3.1520    -4.4310 ha         1 L96       0.143000
     55 H22          3.4510     5.4720    -3.7190 ha         1 L96       0.123000
     56 H23          1.2320     6.1350    -2.8840 ha         1 L96       0.127000
     57 H24         -0.2040     2.1500    -3.4760 ha         1 L96       0.158000
     58 H25         -0.0500     6.1730    -1.6640 h1         1 L96       0.050700
     59 H26         -2.1030     7.4610    -3.0880 hc         1 L96       0.043700
     60 H27         -1.4360     6.2790    -4.2230 hc         1 L96       0.043700
     61 H28         -0.3770     7.4830    -3.4750 hc         1 L96       0.043700
     62 H29         -3.0560     5.7180    -1.6770 hc         1 L96       0.043700
     63 H30         -2.1890     6.9420    -0.7410 hc         1 L96       0.043700
     64 H31         -1.9640     5.2260    -0.3750 hc         1 L96       0.043700
@<TRIPOS>BOND
     1    28    27 ar
     2    28    29 ar
     3    27    26 ar
     4    31    29 1
     5    31    32 1
     6    29    30 ar
     7    34    32 1
     8     1     2 1
     9    33    32 1
    10    26    25 ar
    11    30    25 ar
    12     2     3 1
    13     2     4 1
    14    25     7 1
    15     4     5 1
    16     5     6 1
    17     7     6 1
    18     7     8 2
    19     6    24 1
    20    11    10 1
    21    12    10 1
    22    12    13 1
    23    10     9 2
    24    13    14 2
    25     9    14 1
    26     9     8 1
    27    14    15 1
    28     8    16 1
    29    24    16 ar
    30    24    23 ar
    31    16    17 ar
    32    23    22 ar
    33    17    18 ar
    34    22    18 ar
    35    18    19 1
    36    19    20 1
    37    19    21 1
    38    20    21 1
    39     4    35 1
    40     4    36 1
    41     5    37 1
    42     5    38 1
    43    11    39 1
    44    11    40 1
    45    11    41 1
    46    12    42 1
    47    15    43 1
    48    15    44 1
    49    15    45 1
    50    17    46 1
    51    19    47 1
    52    20    48 1
    53    20    49 1
    54    21    50 1
    55    21    51 1
    56    22    52 1
    57    23    53 1
    58    26    54 1
    59    27    55 1
    60    28    56 1
    61    30    57 1
    62    32    58 1
    63    33    59 1
    64    33    60 1
    65    33    61 1
    66    34    62 1
    67    34    63 1
    68    34    64 1
@<TRIPOS>SUBSTRUCTURE
     1 L96         1 TEMP              0 ****  ****    0 ROOT
