@<TRIPOS>MOLECULE
L97
   13    13     1     0     0
SMALL
bcc


@<TRIPOS>ATOM
      1 Cl           0.0000     0.0000     0.0000 cl         1 L97      -0.090000
      2 C4           1.7360     0.0000     0.0000 ca         1 L97       0.375300
      3 C            2.4240     0.0000     1.2070 ca         1 L97      -0.071700
      4 N            1.7290     0.0060     2.4200 nv         1 L97      -0.528200
      5 N1           2.3880    -0.0050    -1.1460 nb         1 L97      -0.553000
      6 C3           3.7070    -0.0050    -1.1950 ca         1 L97       0.396200
      7 C2           4.4610     0.0010    -0.0360 ca         1 L97      -0.209300
      8 C1           3.8170    -0.0050     1.1920 ca         1 L97      -0.086000
      9 H1           1.1980    -0.7960     2.6970 hn         1 L97       0.277300
     10 H2           1.7380     0.8230     2.9980 hn         1 L97       0.277300
     11 H3           4.2060    -0.0040    -2.1560 h4         1 L97      -0.017900
     12 H4           5.5430    -0.0000    -0.0860 ha         1 L97       0.113000
     13 H5           4.3820    -0.0030     2.1160 ha         1 L97       0.116000
@<TRIPOS>BOND
     1     1     2 1   
     2     2     3 ar  
     3     2     5 ar  
     4     3     4 1   
     5     3     8 ar  
     6     4     9 1   
     7     4    10 1   
     8     5     6 ar  
     9     6     7 ar  
    10     6    11 1   
    11     7     8 ar  
    12     7    12 1   
    13     8    13 1   
@<TRIPOS>SUBSTRUCTURE
     1 L97         1 TEMP              0 ****  ****    0 ROOT
