@<TRIPOS>MOLECULE
molecule
   13    13     1     0     0
SMALL
bcc


@<TRIPOS>ATOM
      1 Cl           0.0000     0.0000     0.0000 cl         1 L97      -0.159000
      2 C4           1.7360     0.0000     0.0000 ca         1 L97       0.493300
      3 C            2.4240     0.0000     1.2070 ca         1 L97       0.063300
      4 N            1.7290     0.0060     2.4200 nv         1 L97      -0.969200
      5 N1           2.3880    -0.0050    -1.1460 nb         1 L97      -0.678000
      6 C3           3.7070    -0.0050    -1.1950 ca         1 L97       0.419200
      7 C2           4.4610     0.0010    -0.0360 ca         1 L97      -0.246300
      8 C1           3.8170    -0.0050     1.1920 ca         1 L97      -0.112000
      9 H1           1.1980    -0.7960     2.6970 hn         1 L97       0.434800
     10 H2           1.7380     0.8230     2.9980 hn         1 L97       0.434800
     11 H3           4.2060    -0.0040    -2.1560 h4         1 L97       0.028100
     12 H4           5.5430    -0.0000    -0.0860 ha         1 L97       0.141000
     13 H5           4.3820    -0.0030     2.1160 ha         1 L97       0.148000
@<TRIPOS>BOND
     1     4     3 1
     2     8     7 ar
     3     8     3 ar
     4     7     6 ar
     5     3     2 ar
     6     6     5 ar
     7     2     5 ar
     8     2     1 1
     9     4     9 1
    10     4    10 1
    11     6    11 1
    12     7    12 1
    13     8    13 1
@<TRIPOS>SUBSTRUCTURE
     1 L97         1 TEMP              0 ****  ****    0 ROOT
