@<TRIPOS>MOLECULE
L98
   29    29     1     0     0
SMALL
bcc


@<TRIPOS>ATOM
      1 S            0.0000     0.0000     0.0000 sh         1 L98      -0.316900
      2 C1           1.8140     0.0000     0.0000 c3         1 L98       0.137700
      3 C2           2.3240     0.0000     1.4420 c3         1 L98      -0.116400
      4 C3           3.8260     0.1230     1.4440 ca         1 L98       0.035700
      5 C4           4.4300     1.1910     2.0780 ca         1 L98      -0.194000
      6 C5           5.8140     1.3070     2.0740 ca         1 L98      -0.126400
      7 C6           4.5980    -0.8370     0.8160 ca         1 L98      -0.017000
      8 C7           5.9770    -0.7270     0.8150 ca         1 L98      -0.071000
      9 C8           6.5870     0.3420     1.4420 ca         1 L98      -0.105000
     10 N9           6.4280     2.3910     2.7100 nu         1 L98      -0.249600
     11 C10          5.8850     3.6500     2.6020 c2         1 L98       0.263100
     12 N11          6.3910     4.6390     3.2840 n2         1 L98      -0.690100
     13 N12          4.8100     3.8670     1.7720 nz         1 L98       0.155400
     14 C13          1.9250    -1.2880     2.1160 c          1 L98       0.967600
     15 O14          0.6270    -1.6120     2.2310 o          1 L98      -0.842800
     16 O15          2.7730    -2.0290     2.5520 o          1 L98      -0.842800
     17 HS          -0.4430     0.4340    -1.1740 hs         1 L98       0.113800
     18 H11A         2.1750    -0.8840    -0.5110 h1         1 L98       0.007200
     19 H12          2.1750     0.8850    -0.5110 h1         1 L98       0.007200
     20 H2           1.8930     0.8370     1.9780 hc         1 L98       0.035700
     21 H4           3.8250     1.9420     2.5710 ha         1 L98       0.087000
     22 H6           4.1230    -1.6770     0.3240 ha         1 L98       0.146000
     23 H7           6.5790    -1.4810     0.3220 ha         1 L98       0.115000
     24 H8           7.6670     0.4280     1.4380 ha         1 L98       0.107000
     25 HN9          7.2550     2.2480     3.2560 hn         1 L98       0.318800
     26 H11          7.1740     4.4830     3.8880 hn         1 L98       0.371400
     27 H121         3.9620     3.6750     2.2680 hn         1 L98       0.234800
     28 H122         4.8100     4.8200     1.4680 hn         1 L98       0.234800
     29 H123         4.8750     3.2630     0.9760 hn         1 L98       0.234800
@<TRIPOS>BOND
     1     1     2 1   
     2     1    17 1   
     3     2     3 1   
     4     2    18 1   
     5     2    19 1   
     6     3     4 1   
     7     3    14 1   
     8     3    20 1   
     9     4     5 ar  
    10     4     7 ar  
    11     5     6 ar  
    12     5    21 1   
    13     6     9 ar  
    14     6    10 1   
    15     7     8 ar  
    16     7    22 1   
    17     8     9 ar  
    18     8    23 1   
    19     9    24 1   
    20    10    11 1   
    21    10    25 1   
    22    11    12 2   
    23    11    13 1   
    24    12    26 1   
    25    13    27 1   
    26    13    28 1   
    27    13    29 1   
    28    14    15 1   
    29    14    16 1   
@<TRIPOS>SUBSTRUCTURE
     1 L98         1 TEMP              0 ****  ****    0 ROOT
