@<TRIPOS>MOLECULE
molecule
   23    23     1     0     0
SMALL
bcc


@<TRIPOS>ATOM
      1 O            0.0000     0.0000     0.0000 o          1 L99      -0.561100
      2 C            1.2160     0.0000     0.0000 c          1 L99       0.686700
      3 N1           1.8890     0.0000     1.1670 ns         1 L99      -0.528300
      4 N            1.2050     0.0000     2.3510 nz         1 L99      -0.533600
      5 C1           1.9540    -0.0060    -1.2780 ca         1 L99      -0.178600
      6 C6           1.2570    -0.0060    -2.4890 ca         1 L99      -0.068000
      7 C5           1.9520    -0.0070    -3.6820 ca         1 L99       0.157600
      8 N3           1.2570    -0.0060    -4.8980 nv         1 L99      -0.966200
      9 C4           3.3500    -0.0060    -3.6760 ca         1 L99       0.213600
     10 N2           4.0520    -0.0060    -4.8800 nv         1 L99      -0.984200
     11 C3           4.0410    -0.0060    -2.4700 ca         1 L99      -0.137000
     12 C2           3.3510    -0.0060    -1.2780 ca         1 L99      -0.110000
     13 H1           2.8900     0.0030     1.1680 hn         1 L99       0.391500
     14 H2           0.6310     0.8180     2.4040 hn         1 L99       0.468467
     15 H3           1.8560    -0.0000     3.1120 hn         1 L99       0.468467
     16 H4           0.1760     0.0720    -2.4920 ha         1 L99       0.169000
     17 H5           0.7460    -0.8180    -5.1830 hn         1 L99       0.442800
     18 H6           1.2300     0.8240    -5.4580 hn         1 L99       0.442800
     19 H7           4.3420     0.8590    -5.2900 hn         1 L99       0.445800
     20 H8           4.2930    -0.8730    -5.3180 hn         1 L99       0.445800
     21 H9           5.1240    -0.0060    -2.4680 ha         1 L99       0.158000
     22 H10          3.8930    -0.0060    -0.3400 ha         1 L99       0.107000
     23 HN3          0.6300    -0.8170     2.4040 hn         1 L99       0.468467
@<TRIPOS>BOND
     1     8     7 1
     2    10     9 1
     3     7     9 ar
     4     7     6 ar
     5     9    11 ar
     6     6     5 ar
     7    11    12 ar
     8     5    12 ar
     9     5     2 1
    10     1     2 2
    11     2     3 1
    12     3     4 1
    13     3    13 1
    14     4    14 1
    15     4    15 1
    16     6    16 1
    17     8    17 1
    18     8    18 1
    19    10    19 1
    20    10    20 1
    21    11    21 1
    22    12    22 1
    23    23     4 1
@<TRIPOS>SUBSTRUCTURE
     1 L99         1 TEMP              0 ****  ****    0 ROOT
