@<TRIPOS>MOLECULE
molecule
   48    51     1     0     0
SMALL
bcc


@<TRIPOS>ATOM
      1 C1           0.0000     0.0000     0.0000 cc         1 L9G      -0.073000
      2 C2           1.4070     0.0000     0.0000 cc         1 L9G      -0.050300
      3 N3           2.0860     0.0000     1.1930 na         1 L9G      -0.038200
      4 C4           1.4090     0.0000     2.3750 cc         1 L9G      -0.102300
      5 C5           0.0590    -0.0010     2.3920 cd         1 L9G      -0.083300
      6 C6          -0.6650     0.0050     1.1880 cd         1 L9G      -0.109000
      7 C7           3.4160     0.0000     0.8670 cc         1 L9G       0.281400
      8 N8           2.3160     0.0000    -0.9640 nd         1 L9G      -0.076000
      9 N9           3.4950     0.0010    -0.4490 nd         1 L9G      -0.308700
     10 C10         -0.6750    -0.0020     3.7080 c3         1 L9G      -0.030100
     11 C11         -1.0340     1.4350     4.0930 c3         1 L9G      -0.026100
     12 C12         -1.7680     1.4330     5.4090 ca         1 L9G      -0.146300
     13 C13         -1.0570     1.4330     6.5980 ca         1 L9G       0.153900
     14 C14         -1.7310     1.4330     7.8070 ca         1 L9G      -0.206000
     15 C15         -3.1160     1.4330     7.8260 ca         1 L9G       0.168900
     16 C16         -3.8250     1.4330     6.6360 ca         1 L9G      -0.171000
     17 C17         -3.1500     1.4390     5.4300 ca         1 L9G      -0.071000
     18 F18          0.2930     1.4330     6.5780 f          1 L9G      -0.148900
     19 F19         -3.7750     1.4320     9.0050 f          1 L9G      -0.123900
     20 C20          4.5510     0.0010     1.8130 ca         1 L9G      -0.069900
     21 C21          4.5620     0.8850     2.8910 ca         1 L9G      -0.021000
     22 C22          5.6360     0.8800     3.7780 ca         1 L9G      -0.227600
     23 C23          6.6940    -0.0120     3.5820 ca         1 L9G      -0.105000
     24 C24          6.6780    -0.8840     2.5120 ca         1 L9G      -0.117000
     25 C25          5.6130    -0.8880     1.6330 ca         1 L9G       0.035700
     26 C26          5.6550     1.8140     4.9230 c          1 L9G       0.508700
     27 N27          6.6960     1.8070     5.7800 nz         1 L9G      -0.678400
     28 O28          4.7340     2.5890     5.0920 o          1 L9G      -0.422100
     29 C29          5.6000    -1.8490     0.4720 c3         1 L9G      -0.066800
     30 H1          -0.5480     0.0050    -0.9350 ha         1 L9G       0.179000
     31 H4           1.9570    -0.0040     3.3090 h4         1 L9G       0.161000
     32 H6          -1.7480     0.0040     1.2050 ha         1 L9G       0.160000
     33 H10         -1.5810    -0.5890     3.6160 hc         1 L9G       0.063700
     34 H10A        -0.0410    -0.4330     4.4740 hc         1 L9G       0.063700
     35 H11         -0.1280     2.0220     4.1850 hc         1 L9G       0.058700
     36 H11A        -1.6680     1.8660     3.3270 hc         1 L9G       0.058700
     37 H14         -1.1770     1.4830     8.7370 ha         1 L9G       0.162000
     38 H16         -4.9080     1.4320     6.6510 ha         1 L9G       0.160000
     39 H17         -3.7050     1.4670     4.5000 ha         1 L9G       0.148000
     40 H21          3.7390     1.5740     3.0380 ha         1 L9G       0.171000
     41 H23          7.5310    -0.0160     4.2690 ha         1 L9G       0.109000
     42 H24          7.5000    -1.5740     2.3660 ha         1 L9G       0.167000
     43 HN27         7.5390     2.0170     5.2830 hn         1 L9G       0.477133
     44 HN2A         6.5480     2.4970     6.4900 hn         1 L9G       0.477133
     45 H29          4.6730    -2.4090     0.4770 hc         1 L9G       0.076700
     46 H29A         6.4350    -2.5340     0.5610 hc         1 L9G       0.076700
     47 H29B         5.6840    -1.2960    -0.4560 hc         1 L9G       0.076700
     48 H273         6.7840     0.8990     6.1920 hn         1 L9G       0.477133
@<TRIPOS>BOND
     1     6     1 2
     2     1     2 1
     3     1    30 1
     4     2     8 2
     5     2     3 1
     6     4     3 1
     7     3     7 1
     8     5     4 2
     9     4    31 1
    10     6     5 1
    11    10     5 1
    12     6    32 1
    13     9     7 2
    14     7    20 1
    15     8     9 1
    16    11    10 1
    17    10    33 1
    18    10    34 1
    19    12    11 1
    20    11    35 1
    21    11    36 1
    22    17    12 ar
    23    12    13 ar
    24    14    13 ar
    25    13    18 1
    26    15    14 ar
    27    14    37 1
    28    19    15 1
    29    16    15 ar
    30    16    17 ar
    31    16    38 1
    32    17    39 1
    33    20    25 ar
    34    20    21 ar
    35    21    22 ar
    36    21    40 1
    37    22    23 ar
    38    22    26 1
    39    24    23 ar
    40    23    41 1
    41    25    24 ar
    42    24    42 1
    43    29    25 1
    44    28    26 2
    45    26    27 1
    46    27    43 1
    47    27    44 1
    48    29    45 1
    49    29    46 1
    50    29    47 1
    51    48    27 1
@<TRIPOS>SUBSTRUCTURE
     1 L9G         1 TEMP              0 ****  ****    0 ROOT
