@<TRIPOS>MOLECULE
L9L
   50    53     1     0     0
SMALL
bcc


@<TRIPOS>ATOM
      1 C1           0.0000     0.0000     0.0000 ca         1 L9L      -0.044000
      2 F1         -14.3870     1.1850     5.2740 f          1 L9L      -0.195633
      3 N1          -5.9110     0.0010     2.1010 nu         1 L9L      -0.538900
      4 O1           4.8360     0.0000     3.2710 o          1 L9L      -0.624500
      5 S1          -3.2160     0.0020     2.6320 ss         1 L9L      -0.280300
      6 C2           1.3760     0.0000     0.0000 ca         1 L9L      -0.115000
      7 F2         -14.4490    -1.0770     4.9580 f          1 L9L      -0.195633
      8 N2          -4.2640     0.0010     0.3850 nc         1 L9L      -0.655000
      9 C3           2.0810     0.0000     1.2040 ca         1 L9L      -0.075400
     10 F3         -15.4610     0.3150     3.4540 f          1 L9L      -0.195633
     11 N3          -8.3750     1.1360     2.8500 nz         1 L9L       0.029400
     12 C4           1.3750     0.0010     2.4020 ca         1 L9L      -0.149300
     13 N4           3.4540     0.0000     1.4540 ns         1 L9L      -0.006100
     14 C5           0.0010     0.0020     2.4140 ca         1 L9L      -0.031000
     15 C6          -0.7030     0.0010     1.2060 ca         1 L9L      -0.052000
     16 C7          -8.3500     0.0020     1.9170 c3         1 L9L      -0.098500
     17 C8           3.7320     0.0000     2.7680 c          1 L9L       0.607500
     18 C9          -2.1810     0.0010     1.2070 cd         1 L9L       0.023600
     19 C10         -2.9740     0.0000     0.1170 cc         1 L9L       0.360200
     20 C11         -4.6060     0.0010     1.6370 cd         1 L9L       0.512300
     21 C12         -7.0260     0.0010     1.1500 c3         1 L9L       0.160800
     22 C13        -11.2970     1.5310     2.6020 ca         1 L9L      -0.096500
     23 C14        -12.4710     1.4610     3.3280 ca         1 L9L      -0.018500
     24 C15        -13.0890     0.2410     3.5250 ca         1 L9L      -0.170300
     25 C16        -12.5340    -0.9090     2.9970 ca         1 L9L      -0.018500
     26 C17        -11.3600    -0.8390     2.2710 ca         1 L9L      -0.096500
     27 C18        -10.7410     0.3810     2.0750 ca         1 L9L      -0.216300
     28 C20         -9.5110     0.1280     0.9290 c3         1 L9L       0.096900
     29 C21          2.4100     0.0010     3.5040 c3         1 L9L      -0.048100
     30 H1          -0.5400    -0.0010    -0.9390 ha         1 L9L       0.111000
     31 HN1         -6.0920    -0.0320     3.0850 hn         1 L9L       0.284800
     32 H2           1.9150    -0.0000    -0.9400 ha         1 L9L       0.116000
     33 HN3         -8.5700     1.9780     2.3460 hn         1 L9L       0.237467
     34 HN3A        -7.4860     1.2160     3.3020 hn         1 L9L       0.237467
     35 HN4          4.1520     0.0000     0.7360 hn         1 L9L       0.183500
     36 H5          -0.5340     0.0030     3.3550 ha         1 L9L       0.110000
     37 H7          -8.4470    -0.9240     2.4710 hx         1 L9L       0.097700
     38 H10         -2.9770     0.0110    -0.9660 h4         1 L9L       0.031100
     39 H12         -6.9690     0.8850     0.5270 h1         1 L9L       0.057700
     40 H12A        -6.9700    -0.8840     0.5280 h1         1 L9L       0.057700
     41 H13        -10.8120     2.4870     2.4480 ha         1 L9L       0.113500
     42 H14        -12.9070     2.3620     3.7420 ha         1 L9L       0.139000
     43 H16        -13.0200    -1.8660     3.1510 ha         1 L9L       0.139000
     44 H17        -10.9240    -1.7410     1.8570 ha         1 L9L       0.113500
     45 H20         -9.4410    -0.6590     0.1870 hc         1 L9L       0.056200
     46 H20A        -9.4650     1.0920     0.4370 hc         1 L9L       0.056200
     47 H21          2.3150     0.8940     4.1110 hc         1 L9L       0.057200
     48 H21A         2.3150    -0.8900     4.1130 hc         1 L9L       0.057200
     49 H33         -9.0930     0.9900     3.5330 hn         1 L9L       0.237467
     50 C19        -14.3690     0.1650     4.3170 c3         1 L9L       0.640200
@<TRIPOS>BOND
     1     1     6 ar  
     2     1    15 ar  
     3     1    30 1   
     4     2    50 1   
     5     3    20 1   
     6     3    21 1   
     7     3    31 1   
     8     4    17 2   
     9     5    18 1   
    10     5    20 1   
    11     6     9 ar  
    12     6    32 1   
    13     7    50 1   
    14     8    19 1   
    15     8    20 2   
    16     9    12 ar  
    17     9    13 1   
    18    10    50 1   
    19    11    16 1   
    20    11    33 1   
    21    11    34 1   
    22    11    49 1   
    23    12    14 ar  
    24    12    29 1   
    25    13    17 1   
    26    13    35 1   
    27    14    15 ar  
    28    14    36 1   
    29    15    18 1   
    30    16    21 1   
    31    16    28 1   
    32    16    37 1   
    33    17    29 1   
    34    18    19 2   
    35    19    38 1   
    36    21    39 1   
    37    21    40 1   
    38    22    23 ar  
    39    22    27 ar  
    40    22    41 1   
    41    23    24 ar  
    42    23    42 1   
    43    24    25 ar  
    44    24    50 1   
    45    25    26 ar  
    46    25    43 1   
    47    26    27 ar  
    48    26    44 1   
    49    27    28 1   
    50    28    45 1   
    51    28    46 1   
    52    29    47 1   
    53    29    48 1   
@<TRIPOS>SUBSTRUCTURE
     1 L9L         1 TEMP              0 ****  ****    0 ROOT
