@<TRIPOS>MOLECULE
L9Q
  130   129     1     0     0
SMALL
bcc


@<TRIPOS>ATOM
      1 N           1.2650   -0.9480    0.4060 n3        1 L9Q     -0.906800
      2 P           4.1210   -2.5020    4.2710 p5        1 L9Q      1.420800
      3 C1          2.8860   -3.3810    6.3860 c3        1 L9Q      0.178400
      4 C2          2.0460   -4.6670    6.4220 c3        1 L9Q      0.124100
      5 O2          0.6700   -4.3940    6.1000 os        1 L9Q     -0.397900
      6 C3          2.5060   -5.7640    5.4630 c3        1 L9Q      0.139400
      7 O3          1.9410   -5.4960    4.1750 os        1 L9Q     -0.407900
      8 C4          2.6310   -1.6790    2.3940 c3        1 L9Q      0.133400
      9 C5          1.9960   -2.0190    1.0390 c3        1 L9Q      0.130800
     10 C11         2.4210   -6.2420    3.1340 c         1 L9Q      0.650100
     11 O11         3.0260   -7.2890    3.3850 o         1 L9Q     -0.572000
     12 C12         2.0880   -5.6300    1.8110 c3        1 L9Q     -0.147400
     13 C13         2.4870   -6.5270    0.6620 c3        1 L9Q     -0.072400
     14 C14         2.1920   -5.8570   -0.6630 c3        1 L9Q     -0.080400
     15 C15         2.6480   -6.7160   -1.8230 c3        1 L9Q     -0.077400
     16 C16         2.3460   -6.0520   -3.1500 c3        1 L9Q     -0.079400
     17 C17         2.8050   -6.9070   -4.3110 c3        1 L9Q     -0.078400
     18 C18         2.5020   -6.2430   -5.6370 c3        1 L9Q     -0.079400
     19 C19         2.9610   -7.0980   -6.7980 c3        1 L9Q     -0.078400
     20 O1P         4.5190   -1.0830    4.3090 o         1 L9Q     -0.825000
     21 C20         2.6590   -6.4340   -8.1240 c3        1 L9Q     -0.079400
     22 C21         3.1180   -7.2880   -9.2860 c3        1 L9Q     -0.078400
     23 C22         2.8150   -6.6230  -10.6120 c3        1 L9Q     -0.079400
     24 C23         3.2750   -7.4780  -11.7730 c3        1 L9Q     -0.078400
     25 C24         2.9720   -6.8130  -13.0990 c3        1 L9Q     -0.079400
     26 C25         3.4320   -7.6680  -14.2610 c3        1 L9Q     -0.079400
     27 C26         3.1290   -7.0030  -15.5860 c3        1 L9Q     -0.079400
     28 C27         3.5890   -7.8560  -16.7490 c3        1 L9Q     -0.080400
     29 C28         3.2900   -7.1980  -18.0710 c3        1 L9Q     -0.092100
     30 O2P         4.9690   -3.6690    4.5810 o         1 L9Q     -0.825000
     31 C31        -0.1080   -3.8340    7.0650 c         1 L9Q      0.638100
     32 O31         0.3080   -3.7530    8.2260 o         1 L9Q     -0.574000
     33 C32        -1.4360   -3.3890    6.5280 c3        1 L9Q     -0.131400
     34 C33        -2.5160   -3.4830    7.5820 c3        1 L9Q     -0.078400
     35 C34        -3.8160   -2.8940    7.0780 c3        1 L9Q     -0.078400
     36 C35        -4.9060   -3.0020    8.1210 c3        1 L9Q     -0.078400
     37 C36        -6.2060   -2.4080    7.6210 c3        1 L9Q     -0.079400
     38 C37        -7.2970   -2.5180    8.6640 c3        1 L9Q     -0.077400
     39 C38        -8.5960   -1.9220    8.1610 c3        1 L9Q     -0.051200
     40 C39        -9.6850   -2.0170    9.1610 c2        1 L9Q     -0.167200
     41 O3P         2.7590   -2.6580    5.2100 os        1 L9Q     -0.567200
     42 C40       -10.9290   -1.5740    8.9500 c2        1 L9Q     -0.181200
     43 C41       -11.3700   -0.9330    7.6880 c3        1 L9Q     -0.048200
     44 C42       -12.8260   -0.5190    7.7320 c3        1 L9Q     -0.076400
     45 C43       -13.2480    0.1320    6.4320 c3        1 L9Q     -0.080400
     46 C44       -14.7030    0.5470    6.4730 c3        1 L9Q     -0.078400
     47 C45       -15.1250    1.1980    5.1730 c3        1 L9Q     -0.079400
     48 C46       -16.5800    1.6130    5.2130 c3        1 L9Q     -0.079400
     49 C47       -17.0040    2.2640    3.9140 c3        1 L9Q     -0.080400
     50 C48       -18.4520    2.6790    3.9490 c3        1 L9Q     -0.092100
     51 O4P         3.4070   -2.7650    2.8060 os        1 L9Q     -0.561200
     52 HN          0.5270   -0.6320    1.0080 hn        1 L9Q      0.333800
     53 HNA         1.8740   -0.1690    0.2360 hn        1 L9Q      0.333800
     54 H1          2.5120   -2.7320    7.2320 h1        1 L9Q      0.041700
     55 H1A         3.9610   -3.6700    6.5660 h1        1 L9Q      0.041700
     56 H2          2.1030   -5.0810    7.4700 h1        1 L9Q      0.054700
     57 H3          2.1390   -6.7680    5.8040 h1        1 L9Q      0.066700
     58 H3A         3.6280   -5.7600    5.3880 h1        1 L9Q      0.066700
     59 H4          1.8390   -1.4860    3.1710 h1        1 L9Q      0.033200
     60 H4A         3.2900   -0.7690    2.3220 h1        1 L9Q      0.033200
     61 H5          2.8110   -2.3570    0.3390 h1        1 L9Q      0.049700
     62 H5A         1.2950   -2.8890    1.1810 h1        1 L9Q      0.049700
     63 H12         2.6350   -4.6410    1.7600 hc        1 L9Q      0.099700
     64 H12A        0.9900   -5.4040    1.7800 hc        1 L9Q      0.099700
     65 H13         3.5810   -6.7630    0.7390 hc        1 L9Q      0.048700
     66 H13A        1.9360   -7.5020    0.7300 hc        1 L9Q      0.048700
     67 H14         2.7090   -4.8610   -0.7030 hc        1 L9Q      0.043700
     68 H14A        1.0910   -5.6610   -0.7500 hc        1 L9Q      0.043700
     69 H15         3.7510   -6.9040   -1.7400 hc        1 L9Q      0.037700
     70 H15A        2.1380   -7.7140   -1.7770 hc        1 L9Q      0.037700
     71 H16         2.8550   -5.0530   -3.1930 hc        1 L9Q      0.041200
     72 H16A        1.2430   -5.8640   -3.2330 hc        1 L9Q      0.041200
     73 H17         3.9080   -7.0940   -4.2270 hc        1 L9Q      0.037700
     74 H17A        2.2970   -7.9070   -4.2660 hc        1 L9Q      0.037700
     75 H18         3.0100   -5.2440   -5.6810 hc        1 L9Q      0.039700
     76 H18A        1.3990   -6.0560   -5.7210 hc        1 L9Q      0.039700
     77 H19         2.4530   -8.0970   -6.7540 hc        1 L9Q      0.037700
     78 H19A        4.0640   -7.2850   -6.7150 hc        1 L9Q      0.037700
     79 H20         1.5550   -6.2470   -8.2080 hc        1 L9Q      0.039700
     80 H20A        3.1670   -5.4340   -8.1680 hc        1 L9Q      0.039700
     81 H21         2.6100   -8.2880   -9.2420 hc        1 L9Q      0.038700
     82 H21A        4.2210   -7.4750   -9.2020 hc        1 L9Q      0.038700
     83 H22         3.3230   -5.6240  -10.6560 hc        1 L9Q      0.039200
     84 H22A        1.7120   -6.4370  -10.6950 hc        1 L9Q      0.039200
     85 H23         4.3780   -7.6650  -11.6890 hc        1 L9Q      0.039200
     86 H23A        2.7670   -8.4770  -11.7290 hc        1 L9Q      0.039200
     87 H24         1.8690   -6.6270  -13.1830 hc        1 L9Q      0.039200
     88 H24A        3.4800   -5.8140  -13.1430 hc        1 L9Q      0.039200
     89 H25         2.9240   -8.6670  -14.2160 hc        1 L9Q      0.038700
     90 H25A        4.5350   -7.8540  -14.1770 hc        1 L9Q      0.038700
     91 H26         2.0260   -6.8160  -15.6700 hc        1 L9Q      0.039200
     92 H26A        3.6370   -6.0030  -15.6300 hc        1 L9Q      0.039200
     93 H27         4.6920   -8.0430  -16.6620 hc        1 L9Q      0.037700
     94 H27A        3.0810   -8.8560  -16.7020 hc        1 L9Q      0.037700
     95 H28         3.8080   -6.2110  -18.1460 hc        1 L9Q      0.031033
     96 H28A        2.1920   -7.0260  -18.1860 hc        1 L9Q      0.031033
     97 H28B        3.6360   -7.8430  -18.9140 hc        1 L9Q      0.031033
     98 H32        -1.3100   -2.3270    6.1830 hc        1 L9Q      0.079200
     99 H32A       -1.7010   -4.0070    5.6300 hc        1 L9Q      0.079200
    100 H33        -2.1810   -2.9430    8.5080 hc        1 L9Q      0.052700
    101 H33A       -2.6720   -4.5570    7.8670 hc        1 L9Q      0.052700
    102 H34        -3.6600   -1.8160    6.8070 hc        1 L9Q      0.040200
    103 H34A       -4.1340   -3.4270    6.1430 hc        1 L9Q      0.040200
    104 H35        -5.0640   -4.0800    8.3900 hc        1 L9Q      0.040200
    105 H35A       -4.5850   -2.4720    9.0570 hc        1 L9Q      0.040200
    106 H36        -6.5250   -2.9370    6.6840 hc        1 L9Q      0.039200
    107 H36A       -6.0470   -1.3300    7.3540 hc        1 L9Q      0.039200
    108 H37        -7.4560   -3.5960    8.9300 hc        1 L9Q      0.041200
    109 H37A       -6.9780   -1.9890    9.6000 hc        1 L9Q      0.041200
    110 H38        -8.4330   -0.8430    7.8880 hc        1 L9Q      0.048200
    111 H38A       -8.9090   -2.4470    7.2160 hc        1 L9Q      0.048200
    112 H39        -9.4180   -2.4860   10.1220 ha        1 L9Q      0.121000
    113 H40       -11.6960   -1.6730    9.7350 ha        1 L9Q      0.118000
    114 H41       -11.2060   -1.6440    6.8320 hc        1 L9Q      0.048200
    115 H41A      -10.7280   -0.0310    7.4830 hc        1 L9Q      0.048200
    116 H42       -13.4670   -1.4180    7.9280 hc        1 L9Q      0.039700
    117 H42A      -12.9890    0.1950    8.5810 hc        1 L9Q      0.039700
    118 H43       -13.0840   -0.5820    5.5830 hc        1 L9Q      0.040700
    119 H43A      -12.6060    1.0310    6.2360 hc        1 L9Q      0.040700
    120 H44       -14.8670    1.2610    7.3220 hc        1 L9Q      0.038700
    121 H44A      -15.3450   -0.3520    6.6690 hc        1 L9Q      0.038700
    122 H45       -14.9610    0.4840    4.3240 hc        1 L9Q      0.040200
    123 H45A      -14.4830    2.0970    4.9770 hc        1 L9Q      0.040200
    124 H46       -16.7450    2.3270    6.0620 hc        1 L9Q      0.038700
    125 H46A      -17.2230    0.7140    5.4090 hc        1 L9Q      0.038700
    126 H47       -16.8370    1.5490    3.0660 hc        1 L9Q      0.038700
    127 H47A      -16.3590    3.1620    3.7190 hc        1 L9Q      0.038700
    128 H48       -18.7430    3.1570    2.9820 hc        1 L9Q      0.031367
    129 H48A      -18.6330    3.4110    4.7730 hc        1 L9Q      0.031367
    130 H48B      -19.1120    1.7940    4.1170 hc        1 L9Q      0.031367
@<TRIPOS>BOND
     1    1    9 1   
     2    1   52 1   
     3    1   53 1   
     4    2   20 1   
     5    2   30 1   
     6    2   41 1   
     7    2   51 1   
     8    3    4 1   
     9    3   41 1   
    10    3   54 1   
    11    3   55 1   
    12    4    5 1   
    13    4    6 1   
    14    4   56 1   
    15    5   31 1   
    16    6    7 1   
    17    6   57 1   
    18    6   58 1   
    19    7   10 1   
    20    8    9 1   
    21    8   51 1   
    22    8   59 1   
    23    8   60 1   
    24    9   61 1   
    25    9   62 1   
    26   10   11 2   
    27   10   12 1   
    28   12   13 1   
    29   12   63 1   
    30   12   64 1   
    31   13   14 1   
    32   13   65 1   
    33   13   66 1   
    34   14   15 1   
    35   14   67 1   
    36   14   68 1   
    37   15   16 1   
    38   15   69 1   
    39   15   70 1   
    40   16   17 1   
    41   16   71 1   
    42   16   72 1   
    43   17   18 1   
    44   17   73 1   
    45   17   74 1   
    46   18   19 1   
    47   18   75 1   
    48   18   76 1   
    49   19   21 1   
    50   19   77 1   
    51   19   78 1   
    52   21   22 1   
    53   21   79 1   
    54   21   80 1   
    55   22   23 1   
    56   22   81 1   
    57   22   82 1   
    58   23   24 1   
    59   23   83 1   
    60   23   84 1   
    61   24   25 1   
    62   24   85 1   
    63   24   86 1   
    64   25   26 1   
    65   25   87 1   
    66   25   88 1   
    67   26   27 1   
    68   26   89 1   
    69   26   90 1   
    70   27   28 1   
    71   27   91 1   
    72   27   92 1   
    73   28   29 1   
    74   28   93 1   
    75   28   94 1   
    76   29   95 1   
    77   29   96 1   
    78   29   97 1   
    79   31   32 2   
    80   31   33 1   
    81   33   34 1   
    82   33   98 1   
    83   33   99 1   
    84   34   35 1   
    85   34  100 1   
    86   34  101 1   
    87   35   36 1   
    88   35  102 1   
    89   35  103 1   
    90   36   37 1   
    91   36  104 1   
    92   36  105 1   
    93   37   38 1   
    94   37  106 1   
    95   37  107 1   
    96   38   39 1   
    97   38  108 1   
    98   38  109 1   
    99   39   40 1   
   100   39  110 1   
   101   39  111 1   
   102   40   42 2   
   103   40  112 1   
   104   42   43 1   
   105   42  113 1   
   106   43   44 1   
   107   43  114 1   
   108   43  115 1   
   109   44   45 1   
   110   44  116 1   
   111   44  117 1   
   112   45   46 1   
   113   45  118 1   
   114   45  119 1   
   115   46   47 1   
   116   46  120 1   
   117   46  121 1   
   118   47   48 1   
   119   47  122 1   
   120   47  123 1   
   121   48   49 1   
   122   48  124 1   
   123   48  125 1   
   124   49   50 1   
   125   49  126 1   
   126   49  127 1   
   127   50  128 1   
   128   50  129 1   
   129   50  130 1   
@<TRIPOS>SUBSTRUCTURE
     1 L9Q         1 TEMP              0 ****  ****    0 ROOT
