@<TRIPOS>MOLECULE
L9R
  140   139     1     0     0
SMALL
bcc


@<TRIPOS>ATOM
      1 N            0.0000     0.0000     0.0000 n4         1 L9R       0.064200
      2 P            2.0250    -3.8420     0.8100 p5         1 L9R       0.909800
      3 C1           1.4530    -6.3870     0.2320 c3         1 L9R       0.293400
      4 C2           0.7430    -7.2110    -0.8440 c3         1 L9R       0.151100
      5 O2          -0.6730    -6.8880    -0.8440 os         1 L9R      -0.398900
      6 C3           1.3410    -6.8820    -2.2140 c3         1 L9R       0.233400
      7 O3           1.2720    -5.4510    -2.4410 os         1 L9R      -0.356900
      8 C4           1.9780    -1.1700     0.8430 c3         1 L9R       0.288400
      9 C5           1.4680     0.0000     0.0000 c3         1 L9R      -0.041200
     10 C6          -0.4900     0.0000     1.3840 c3         1 L9R       0.010100
     11 C7          -0.4890     1.2000    -0.6920 c3         1 L9R       0.010100
     12 C8          -0.4900    -1.1990    -0.6930 c3         1 L9R       0.010100
     13 C11          1.7590    -4.9940    -3.6070 c          1 L9R       0.688100
     14 O11          2.2260    -5.7660    -4.4100 o          1 L9R      -0.606000
     15 C12          1.7220    -3.5190    -3.9130 c3         1 L9R      -0.070400
     16 C13          2.3340    -3.2690    -5.2930 c3         1 L9R      -0.022400
     17 C14          2.2970    -1.7720    -5.6030 c3         1 L9R      -0.028400
     18 C15          2.9090    -1.5220    -6.9840 c3         1 L9R      -0.027400
     19 C16          2.8710    -0.0250    -7.2950 c3         1 L9R      -0.028400
     20 C17          3.4830     0.2250    -8.6750 c3         1 L9R      -0.029400
     21 C18          3.4450     1.7230    -8.9850 c3         1 L9R      -0.028400
     22 C19          4.0580     1.9730   -10.3660 c3         1 L9R      -0.029400
     23 O1P          1.4750    -3.9560     2.2490 o          1 L9R      -0.635000
     24 C20          4.0200     3.4700   -10.6770 c3         1 L9R      -0.029400
     25 C21          4.6310     3.7200   -12.0570 c3         1 L9R      -0.029400
     26 C22          4.5940     5.2170   -12.3670 c3         1 L9R      -0.029400
     27 C23          5.2070     5.4670   -13.7480 c3         1 L9R      -0.029400
     28 C24          5.1690     6.9650   -14.0580 c3         1 L9R      -0.029400
     29 C25          5.7810     7.2140   -15.4380 c3         1 L9R      -0.029400
     30 C26          5.7430     8.7120   -15.7490 c3         1 L9R      -0.030400
     31 C27          6.3550     8.9620   -17.1300 c3         1 L9R      -0.028400
     32 C28          6.3170    10.4590   -17.4410 c3         1 L9R       0.006900
     33 O2P          3.5620    -4.0000     0.8330 o          1 L9R      -0.635000
     34 C31         -1.4650    -7.6250    -0.0480 c          1 L9R       0.693100
     35 O31         -0.9910    -8.5070     0.6270 o          1 L9R      -0.591000
     36 C32         -2.9450    -7.3480     0.0040 c3         1 L9R      -0.070400
     37 C33         -3.6110    -8.3200     0.9810 c3         1 L9R      -0.021400
     38 C34         -5.1150    -8.0390     1.0340 c3         1 L9R      -0.029400
     39 C35         -5.7810    -9.0100     2.0110 c3         1 L9R      -0.027400
     40 C36         -7.2840    -8.7300     2.0640 c3         1 L9R      -0.029400
     41 C37         -7.9490    -9.7010     3.0410 c3         1 L9R      -0.024400
     42 C38         -9.4520    -9.4200     3.0950 c3         1 L9R      -0.005200
     43 C39        -10.1080   -10.3780     4.0560 c2         1 L9R      -0.156200
     44 O3P          1.3810    -5.0010    -0.1040 os         1 L9R      -0.494200
     45 C40        -10.8710    -9.9200     5.0180 c2         1 L9R      -0.158200
     46 C41        -11.2340    -8.4580     5.0590 c3         1 L9R      -0.005200
     47 C42        -12.7550    -8.3120     5.1350 c3         1 L9R      -0.023400
     48 C43        -13.1220    -6.8260     5.1780 c3         1 L9R      -0.029400
     49 C44        -14.6440    -6.6800     5.2530 c3         1 L9R      -0.029400
     50 C45        -15.0120    -5.1960     5.2960 c3         1 L9R      -0.029400
     51 C46        -16.5330    -5.0490     5.3710 c3         1 L9R      -0.030400
     52 C47        -16.9000    -3.5650     5.4140 c3         1 L9R      -0.028400
     53 C48        -18.4210    -3.4180     5.4890 c3         1 L9R       0.005900
     54 O4P          1.6430    -2.4020     0.2000 os         1 L9R      -0.525200
     55 H1           0.9720    -6.5530     1.1890 h1         1 L9R       0.003700
     56 H1A          2.4910    -6.6910     0.2930 h1         1 L9R       0.003700
     57 H2           0.8730    -8.2660    -0.6370 h1         1 L9R       0.044700
     58 H3           0.7810    -7.3970    -2.9850 h1         1 L9R       0.012200
     59 H3A          2.3750    -7.2030    -2.2430 h1         1 L9R       0.012200
     60 H4           3.0540    -1.0980     0.9460 h1         1 L9R       0.021700
     61 H4A          1.5180    -1.1370     1.8230 h1         1 L9R       0.021700
     62 H5           1.8290    -0.1020    -1.0160 hx         1 L9R       0.065200
     63 H5A          1.8290     0.9310     0.4190 hx         1 L9R       0.065200
     64 H6          -0.4140    -1.0000     1.7940 hx         1 L9R       0.070478
     65 H6A         -1.5250     0.3190     1.4000 hx         1 L9R       0.070478
     66 H6B          0.1070     0.6810     1.9790 hx         1 L9R       0.070478
     67 H7          -1.5730     1.1930    -0.7050 hx         1 L9R       0.070478
     68 H7A         -0.1400     2.0840    -0.1730 hx         1 L9R       0.070478
     69 H7B         -0.1160     1.2080    -1.7090 hx         1 L9R       0.070478
     70 H8           0.1950    -1.4620    -1.4900 hx         1 L9R       0.070478
     71 H8A         -0.5590    -2.0210     0.0100 hx         1 L9R       0.070478
     72 H8B         -1.4700    -1.0000    -1.1110 hx         1 L9R       0.070478
     73 H12          0.6950    -3.1740    -3.9050 hc         1 L9R       0.028200
     74 H12A         2.2900    -2.9800    -3.1630 hc         1 L9R       0.028200
     75 H13          3.3610    -3.6140    -5.3000 hc         1 L9R       0.032700
     76 H13A         1.7660    -3.8080    -6.0420 hc         1 L9R       0.032700
     77 H14          2.8640    -1.2340    -4.8540 hc         1 L9R       0.004700
     78 H14A         1.2700    -1.4270    -5.5960 hc         1 L9R       0.004700
     79 H15          3.9360    -1.8670    -6.9910 hc         1 L9R       0.020200
     80 H15A         2.3420    -2.0610    -7.7330 hc         1 L9R       0.020200
     81 H16          1.8440     0.3200    -7.2870 hc         1 L9R       0.009700
     82 H16A         3.4380     0.5140    -6.5460 hc         1 L9R       0.009700
     83 H17          4.5100    -0.1200    -8.6820 hc         1 L9R       0.017700
     84 H17A         2.9150    -0.3140    -9.4240 hc         1 L9R       0.017700
     85 H18          4.0130     2.2610    -8.2360 hc         1 L9R       0.012200
     86 H18A         2.4180     2.0670    -8.9780 hc         1 L9R       0.012200
     87 H19          3.4910     1.4340   -11.1150 hc         1 L9R       0.016200
     88 H19A         5.0850     1.6280   -10.3730 hc         1 L9R       0.016200
     89 H20          4.5870     4.0090    -9.9280 hc         1 L9R       0.013200
     90 H20A         2.9930     3.8150   -10.6690 hc         1 L9R       0.013200
     91 H21          4.0640     3.1810   -12.8060 hc         1 L9R       0.015700
     92 H21A         5.6580     3.3750   -12.0640 hc         1 L9R       0.015700
     93 H22          3.5680     5.5620   -12.3600 hc         1 L9R       0.013700
     94 H22A         5.1620     5.7550   -11.6180 hc         1 L9R       0.013700
     95 H23          6.2340     5.1220   -13.7550 hc         1 L9R       0.015200
     96 H23A         4.6390     4.9280   -14.4970 hc         1 L9R       0.015200
     97 H24          5.7370     7.5030   -13.3090 hc         1 L9R       0.014200
     98 H24A         4.1420     7.3100   -14.0510 hc         1 L9R       0.014200
     99 H25          5.2140     6.6750   -16.1870 hc         1 L9R       0.014700
    100 H25A         6.8080     6.8700   -15.4460 hc         1 L9R       0.014700
    101 H26          4.7160     9.0560   -15.7420 hc         1 L9R       0.014700
    102 H26A         6.3100     9.2510   -15.0000 hc         1 L9R       0.014700
    103 H27          7.3820     8.6170   -17.1370 hc         1 L9R       0.012200
    104 H27A         5.7880     8.4230   -17.8790 hc         1 L9R       0.012200
    105 H28          5.2920    10.8070   -17.4180 hc         1 L9R       0.000367
    106 H28A         6.7360    10.6340   -18.4240 hc         1 L9R       0.000367
    107 H28B         6.8970    10.9970   -16.7000 hc         1 L9R       0.000367
    108 H32         -3.3720    -7.4790    -0.9830 hc         1 L9R       0.030200
    109 H32A        -3.1110    -6.3310     0.3370 hc         1 L9R       0.030200
    110 H33         -3.4450    -9.3370     0.6480 hc         1 L9R       0.031200
    111 H33A        -3.1840    -8.1890     1.9680 hc         1 L9R       0.031200
    112 H34         -5.2810    -7.0210     1.3670 hc         1 L9R       0.010200
    113 H34A        -5.5420    -8.1700     0.0470 hc         1 L9R       0.010200
    114 H35         -5.6150   -10.0280     1.6780 hc         1 L9R       0.018200
    115 H35A        -5.3540    -8.8800     2.9980 hc         1 L9R       0.018200
    116 H36         -7.4500    -7.7130     2.3980 hc         1 L9R       0.012200
    117 H36A        -7.7110    -8.8610     1.0770 hc         1 L9R       0.012200
    118 H37         -7.7830   -10.7190     2.7070 hc         1 L9R       0.016700
    119 H37A        -7.5210    -9.5710     4.0270 hc         1 L9R       0.016700
    120 H38         -9.6170    -8.4030     3.4280 hc         1 L9R       0.026200
    121 H38A        -9.8790    -9.5510     2.1080 hc         1 L9R       0.026200
    122 H39         -9.8490   -11.4290     4.0280 ha         1 L9R       0.103000
    123 H40        -11.3420   -10.6110     5.7080 ha         1 L9R       0.102000
    124 H41        -10.7830    -7.9990     5.9310 hc         1 L9R       0.026700
    125 H41A       -10.8680    -7.9690     4.1640 hc         1 L9R       0.026700
    126 H42        -13.2060    -8.7700     4.2630 hc         1 L9R       0.015700
    127 H42A       -13.1210    -8.8000     6.0300 hc         1 L9R       0.015700
    128 H43        -12.7560    -6.3370     4.2830 hc         1 L9R       0.013700
    129 H43A       -12.6720    -6.3680     6.0500 hc         1 L9R       0.013700
    130 H44        -15.0110    -7.1700     6.1470 hc         1 L9R       0.015200
    131 H44A       -15.0940    -7.1380     4.3800 hc         1 L9R       0.015200
    132 H45        -14.5610    -4.7380     6.1690 hc         1 L9R       0.014200
    133 H45A       -14.6450    -4.7060     4.4020 hc         1 L9R       0.014200
    134 H46        -16.9830    -5.5070     4.4990 hc         1 L9R       0.015200
    135 H46A       -16.8990    -5.5380     6.2660 hc         1 L9R       0.015200
    136 H47        -16.4500    -3.1070     6.2870 hc         1 L9R       0.011200
    137 H47A       -16.5340    -3.0760     4.5200 hc         1 L9R       0.011200
    138 H48        -18.8720    -3.8770     4.6170 hc         1 L9R       0.000033
    139 H48A       -18.7880    -3.9060     6.3840 hc         1 L9R       0.000033
    140 H48B       -18.6820    -2.3670     5.5180 hc         1 L9R       0.000033
@<TRIPOS>BOND
     1     1     9 1   
     2     1    10 1   
     3     1    11 1   
     4     1    12 1   
     5     2    23 1   
     6     2    33 1   
     7     2    44 1   
     8     2    54 1   
     9     3     4 1   
    10     3    44 1   
    11     3    55 1   
    12     3    56 1   
    13     4     5 1   
    14     4     6 1   
    15     4    57 1   
    16     5    34 1   
    17     6     7 1   
    18     6    58 1   
    19     6    59 1   
    20     7    13 1   
    21     8     9 1   
    22     8    54 1   
    23     8    60 1   
    24     8    61 1   
    25     9    62 1   
    26     9    63 1   
    27    10    64 1   
    28    10    65 1   
    29    10    66 1   
    30    11    67 1   
    31    11    68 1   
    32    11    69 1   
    33    12    70 1   
    34    12    71 1   
    35    12    72 1   
    36    13    14 2   
    37    13    15 1   
    38    15    16 1   
    39    15    73 1   
    40    15    74 1   
    41    16    17 1   
    42    16    75 1   
    43    16    76 1   
    44    17    18 1   
    45    17    77 1   
    46    17    78 1   
    47    18    19 1   
    48    18    79 1   
    49    18    80 1   
    50    19    20 1   
    51    19    81 1   
    52    19    82 1   
    53    20    21 1   
    54    20    83 1   
    55    20    84 1   
    56    21    22 1   
    57    21    85 1   
    58    21    86 1   
    59    22    24 1   
    60    22    87 1   
    61    22    88 1   
    62    24    25 1   
    63    24    89 1   
    64    24    90 1   
    65    25    26 1   
    66    25    91 1   
    67    25    92 1   
    68    26    27 1   
    69    26    93 1   
    70    26    94 1   
    71    27    28 1   
    72    27    95 1   
    73    27    96 1   
    74    28    29 1   
    75    28    97 1   
    76    28    98 1   
    77    29    30 1   
    78    29    99 1   
    79    29   100 1   
    80    30    31 1   
    81    30   101 1   
    82    30   102 1   
    83    31    32 1   
    84    31   103 1   
    85    31   104 1   
    86    32   105 1   
    87    32   106 1   
    88    32   107 1   
    89    34    35 2   
    90    34    36 1   
    91    36    37 1   
    92    36   108 1   
    93    36   109 1   
    94    37    38 1   
    95    37   110 1   
    96    37   111 1   
    97    38    39 1   
    98    38   112 1   
    99    38   113 1   
   100    39    40 1   
   101    39   114 1   
   102    39   115 1   
   103    40    41 1   
   104    40   116 1   
   105    40   117 1   
   106    41    42 1   
   107    41   118 1   
   108    41   119 1   
   109    42    43 1   
   110    42   120 1   
   111    42   121 1   
   112    43    45 2   
   113    43   122 1   
   114    45    46 1   
   115    45   123 1   
   116    46    47 1   
   117    46   124 1   
   118    46   125 1   
   119    47    48 1   
   120    47   126 1   
   121    47   127 1   
   122    48    49 1   
   123    48   128 1   
   124    48   129 1   
   125    49    50 1   
   126    49   130 1   
   127    49   131 1   
   128    50    51 1   
   129    50   132 1   
   130    50   133 1   
   131    51    52 1   
   132    51   134 1   
   133    51   135 1   
   134    52    53 1   
   135    52   136 1   
   136    52   137 1   
   137    53   138 1   
   138    53   139 1   
   139    53   140 1   
@<TRIPOS>SUBSTRUCTURE
     1 L9R         1 TEMP              0 ****  ****    0 ROOT
