@<TRIPOS>MOLECULE
molecule
  140   139     1     0     0
SMALL
bcc


@<TRIPOS>ATOM
      1 N            0.0000     0.0000     0.0000 n4         1 L9R      -0.568800
      2 P            2.0250    -3.8420     0.8100 p5         1 L9R       1.325800
      3 C1           1.4530    -6.3870     0.2320 c3         1 L9R       0.212400
      4 C2           0.7430    -7.2110    -0.8440 c3         1 L9R       0.139100
      5 O2          -0.6730    -6.8880    -0.8440 os         1 L9R      -0.414900
      6 C3           1.3410    -6.8820    -2.2140 c3         1 L9R       0.161400
      7 O3           1.2720    -5.4510    -2.4410 os         1 L9R      -0.378900
      8 C4           1.9780    -1.1700     0.8430 c3         1 L9R       0.200400
      9 C5           1.4680     0.0000     0.0000 c3         1 L9R       0.093800
     10 C6          -0.4900     0.0000     1.3840 c3         1 L9R       0.098100
     11 C7          -0.4890     1.2000    -0.6920 c3         1 L9R       0.098100
     12 C8          -0.4900    -1.1990    -0.6930 c3         1 L9R       0.098100
     13 C11          1.7590    -4.9940    -3.6070 c          1 L9R       0.628100
     14 O11          2.2260    -5.7660    -4.4100 o          1 L9R      -0.564000
     15 C12          1.7220    -3.5190    -3.9130 c3         1 L9R      -0.126400
     16 C13          2.3340    -3.2690    -5.2930 c3         1 L9R      -0.073400
     17 C14          2.2970    -1.7720    -5.6030 c3         1 L9R      -0.083400
     18 C15          2.9090    -1.5220    -6.9840 c3         1 L9R      -0.080400
     19 C16          2.8710    -0.0250    -7.2950 c3         1 L9R      -0.082400
     20 C17          3.4830     0.2250    -8.6750 c3         1 L9R      -0.081400
     21 C18          3.4450     1.7230    -8.9850 c3         1 L9R      -0.082400
     22 C19          4.0580     1.9730   -10.3660 c3         1 L9R      -0.082400
     23 O1P          1.4750    -3.9560     2.2490 o          1 L9R      -0.797000
     24 C20          4.0200     3.4700   -10.6770 c3         1 L9R      -0.082400
     25 C21          4.6310     3.7200   -12.0570 c3         1 L9R      -0.082400
     26 C22          4.5940     5.2170   -12.3670 c3         1 L9R      -0.082400
     27 C23          5.2070     5.4670   -13.7480 c3         1 L9R      -0.082400
     28 C24          5.1690     6.9650   -14.0580 c3         1 L9R      -0.081400
     29 C25          5.7810     7.2140   -15.4380 c3         1 L9R      -0.082400
     30 C26          5.7430     8.7120   -15.7490 c3         1 L9R      -0.081400
     31 C27          6.3550     8.9620   -17.1300 c3         1 L9R      -0.084400
     32 C28          6.3170    10.4590   -17.4410 c3         1 L9R      -0.092100
     33 O2P          3.5620    -4.0000     0.8330 o          1 L9R      -0.797000
     34 C31         -1.4650    -7.6250    -0.0480 c          1 L9R       0.630100
     35 O31         -0.9910    -8.5070     0.6270 o          1 L9R      -0.553000
     36 C32         -2.9450    -7.3480     0.0040 c3         1 L9R      -0.125400
     37 C33         -3.6110    -8.3200     0.9810 c3         1 L9R      -0.072400
     38 C34         -5.1150    -8.0390     1.0340 c3         1 L9R      -0.084400
     39 C35         -5.7810    -9.0100     2.0110 c3         1 L9R      -0.078400
     40 C36         -7.2840    -8.7300     2.0640 c3         1 L9R      -0.090400
     41 C37         -7.9490    -9.7010     3.0410 c3         1 L9R      -0.097400
     42 C38         -9.4520    -9.4200     3.0950 c3         1 L9R       0.066800
     43 C39        -10.1080   -10.3780     4.0560 c2         1 L9R      -0.228200
     44 O3P          1.3810    -5.0010    -0.1040 os         1 L9R      -0.590200
     45 C40        -10.8710    -9.9200     5.0180 c2         1 L9R      -0.231200
     46 C41        -11.2340    -8.4580     5.0590 c3         1 L9R       0.065800
     47 C42        -12.7550    -8.3120     5.1350 c3         1 L9R      -0.097400
     48 C43        -13.1220    -6.8260     5.1780 c3         1 L9R      -0.090400
     49 C44        -14.6440    -6.6800     5.2530 c3         1 L9R      -0.080400
     50 C45        -15.0120    -5.1960     5.2960 c3         1 L9R      -0.082400
     51 C46        -16.5330    -5.0490     5.3710 c3         1 L9R      -0.081400
     52 C47        -16.9000    -3.5650     5.4140 c3         1 L9R      -0.084400
     53 C48        -18.4210    -3.4180     5.4890 c3         1 L9R      -0.092100
     54 O4P          1.6430    -2.4020     0.2000 os         1 L9R      -0.611200
     55 H1           2.4910    -6.6910     0.2930 h1         1 L9R       0.053200
     56 H1A          0.9720    -6.5530     1.1890 h1         1 L9R       0.053200
     57 H2           0.8740    -8.2660    -0.6370 h1         1 L9R       0.084700
     58 H3           2.3750    -7.2030    -2.2430 h1         1 L9R       0.056700
     59 H3A          0.7810    -7.3970    -2.9850 h1         1 L9R       0.056700
     60 H4           3.0540    -1.0980     0.9470 h1         1 L9R       0.071200
     61 H4A          1.5180    -1.1370     1.8230 h1         1 L9R       0.071200
     62 H5           1.8290     0.9310     0.4190 hx         1 L9R       0.092700
     63 H5A          1.8290    -0.1020    -1.0160 hx         1 L9R       0.092700
     64 H6           0.1240     0.6600     1.9850 hx         1 L9R       0.095367
     65 H6A         -1.5170     0.3450     1.4030 hx         1 L9R       0.095367
     66 H6B         -0.4390    -1.0050     1.7850 hx         1 L9R       0.095367
     67 H7          -0.1560     2.0840    -0.1620 hx         1 L9R       0.095367
     68 H7A         -0.1010     1.2170    -1.7030 hx         1 L9R       0.095367
     69 H7B         -1.5720     1.1830    -0.7220 hx         1 L9R       0.095367
     70 H8          -0.5560    -2.0210     0.0090 hx         1 L9R       0.095367
     71 H8A         -1.4710    -1.0010    -1.1090 hx         1 L9R       0.095367
     72 H8B          0.1940    -1.4600    -1.4920 hx         1 L9R       0.095367
     73 H12          2.2900    -2.9800    -3.1630 hc         1 L9R       0.062200
     74 H12A         0.6950    -3.1740    -3.9050 hc         1 L9R       0.062200
     75 H13          3.3610    -3.6140    -5.3000 hc         1 L9R       0.062700
     76 H13A         1.7660    -3.8080    -6.0420 hc         1 L9R       0.062700
     77 H14          2.8640    -1.2340    -4.8540 hc         1 L9R       0.031700
     78 H14A         1.2700    -1.4270    -5.5960 hc         1 L9R       0.031700
     79 H15          2.3420    -2.0610    -7.7330 hc         1 L9R       0.047700
     80 H15A         3.9360    -1.8670    -6.9910 hc         1 L9R       0.047700
     81 H16          3.4380     0.5140    -6.5460 hc         1 L9R       0.036200
     82 H16A         1.8440     0.3200    -7.2870 hc         1 L9R       0.036200
     83 H17          4.5100    -0.1200    -8.6820 hc         1 L9R       0.044700
     84 H17A         2.9150    -0.3140    -9.4240 hc         1 L9R       0.044700
     85 H18          2.4180     2.0670    -8.9780 hc         1 L9R       0.038700
     86 H18A         4.0130     2.2610    -8.2360 hc         1 L9R       0.038700
     87 H19          5.0850     1.6280   -10.3730 hc         1 L9R       0.043200
     88 H19A         3.4910     1.4340   -11.1150 hc         1 L9R       0.043200
     89 H20          4.5870     4.0090    -9.9280 hc         1 L9R       0.039700
     90 H20A         2.9930     3.8150   -10.6690 hc         1 L9R       0.039700
     91 H21          4.0640     3.1810   -12.8060 hc         1 L9R       0.042200
     92 H21A         5.6580     3.3750   -12.0640 hc         1 L9R       0.042200
     93 H22          3.5680     5.5620   -12.3600 hc         1 L9R       0.040200
     94 H22A         5.1620     5.7550   -11.6180 hc         1 L9R       0.040200
     95 H23          4.6390     4.9280   -14.4970 hc         1 L9R       0.041700
     96 H23A         6.2340     5.1220   -13.7550 hc         1 L9R       0.041700
     97 H24          4.1420     7.3100   -14.0510 hc         1 L9R       0.040700
     98 H24A         5.7370     7.5030   -13.3090 hc         1 L9R       0.040700
     99 H25          5.2140     6.6750   -16.1870 hc         1 L9R       0.041200
    100 H25A         6.8080     6.8700   -15.4460 hc         1 L9R       0.041200
    101 H26          4.7160     9.0560   -15.7420 hc         1 L9R       0.040700
    102 H26A         6.3100     9.2510   -15.0000 hc         1 L9R       0.040700
    103 H27          5.7880     8.4230   -17.8790 hc         1 L9R       0.040200
    104 H27A         7.3820     8.6170   -17.1370 hc         1 L9R       0.040200
    105 H28          5.2890    10.8010   -17.4470 hc         1 L9R       0.032700
    106 H28A         6.7630    10.6380   -18.4120 hc         1 L9R       0.032700
    107 H28B         6.8730    11.0000   -16.6840 hc         1 L9R       0.032700
    108 H32         -3.1110    -6.3310     0.3370 hc         1 L9R       0.066200
    109 H32A        -3.3720    -7.4790    -0.9830 hc         1 L9R       0.066200
    110 H33         -3.4450    -9.3370     0.6480 hc         1 L9R       0.061700
    111 H33A        -3.1840    -8.1890     1.9680 hc         1 L9R       0.061700
    112 H34         -5.2810    -7.0210     1.3670 hc         1 L9R       0.037200
    113 H34A        -5.5420    -8.1700     0.0470 hc         1 L9R       0.037200
    114 H35         -5.6150   -10.0280     1.6780 hc         1 L9R       0.047700
    115 H35A        -5.3540    -8.8800     2.9980 hc         1 L9R       0.047700
    116 H36         -7.7110    -8.8610     1.0770 hc         1 L9R       0.036700
    117 H36A        -7.4500    -7.7130     2.3980 hc         1 L9R       0.036700
    118 H37         -7.7830   -10.7190     2.7070 hc         1 L9R       0.057200
    119 H37A        -7.5210    -9.5710     4.0270 hc         1 L9R       0.057200
    120 H38         -9.6170    -8.4030     3.4290 hc         1 L9R       0.043200
    121 H38A        -9.8790    -9.5500     2.1080 hc         1 L9R       0.043200
    122 H39        -10.6420   -10.0060     3.1900 ha         1 L9R       0.069000
    123 H40        -10.2060    -9.1940     5.4690 ha         1 L9R       0.070000
    124 H41        -10.8680    -7.9690     4.1640 hc         1 L9R       0.043700
    125 H41A       -10.7830    -7.9990     5.9310 hc         1 L9R       0.043700
    126 H42        -13.1210    -8.8000     6.0300 hc         1 L9R       0.055200
    127 H42A       -13.2060    -8.7700     4.2630 hc         1 L9R       0.055200
    128 H43        -12.7560    -6.3370     4.2830 hc         1 L9R       0.038200
    129 H43A       -12.6720    -6.3680     6.0500 hc         1 L9R       0.038200
    130 H44        -15.0110    -7.1700     6.1470 hc         1 L9R       0.043700
    131 H44A       -15.0940    -7.1380     4.3800 hc         1 L9R       0.043700
    132 H45        -14.5610    -4.7380     6.1690 hc         1 L9R       0.039700
    133 H45A       -14.6450    -4.7060     4.4020 hc         1 L9R       0.039700
    134 H46        -16.8990    -5.5380     6.2660 hc         1 L9R       0.042200
    135 H46A       -16.9830    -5.5070     4.4990 hc         1 L9R       0.042200
    136 H47        -16.4500    -3.1070     6.2870 hc         1 L9R       0.039200
    137 H47A       -16.5340    -3.0760     4.5200 hc         1 L9R       0.039200
    138 H48        -18.6820    -2.3670     5.5130 hc         1 L9R       0.032700
    139 H48A       -18.8720    -3.8820     4.6200 hc         1 L9R       0.032700
    140 H48B       -18.7870    -3.9010     6.3870 hc         1 L9R       0.032700
@<TRIPOS>BOND
     1     1     9 1
     2     1    10 1
     3     1    11 1
     4     1    12 1
     5     2    23 1
     6     2    33 1
     7     2    44 1
     8     2    54 1
     9     3     4 1
    10     3    44 1
    11     4     5 1
    12     4     6 1
    13     5    34 1
    14     6     7 1
    15     7    13 1
    16     8     9 1
    17     8    54 1
    18    13    14 2
    19    13    15 1
    20    15    16 1
    21    16    17 1
    22    17    18 1
    23    18    19 1
    24    19    20 1
    25    20    21 1
    26    21    22 1
    27    22    24 1
    28    24    25 1
    29    25    26 1
    30    26    27 1
    31    27    28 1
    32    28    29 1
    33    29    30 1
    34    30    31 1
    35    31    32 1
    36    34    35 2
    37    34    36 1
    38    36    37 1
    39    37    38 1
    40    38    39 1
    41    39    40 1
    42    40    41 1
    43    41    42 1
    44    42    43 1
    45    43    45 2
    46    45    46 1
    47    46    47 1
    48    47    48 1
    49    48    49 1
    50    49    50 1
    51    50    51 1
    52    51    52 1
    53    52    53 1
    54     3    55 1
    55     3    56 1
    56     4    57 1
    57     6    58 1
    58     6    59 1
    59     8    60 1
    60     8    61 1
    61     9    62 1
    62     9    63 1
    63    10    64 1
    64    10    65 1
    65    10    66 1
    66    11    67 1
    67    11    68 1
    68    11    69 1
    69    12    70 1
    70    12    71 1
    71    12    72 1
    72    15    73 1
    73    15    74 1
    74    16    75 1
    75    16    76 1
    76    17    77 1
    77    17    78 1
    78    18    79 1
    79    18    80 1
    80    19    81 1
    81    19    82 1
    82    20    83 1
    83    20    84 1
    84    21    85 1
    85    21    86 1
    86    22    87 1
    87    22    88 1
    88    24    89 1
    89    24    90 1
    90    25    91 1
    91    25    92 1
    92    26    93 1
    93    26    94 1
    94    27    95 1
    95    27    96 1
    96    28    97 1
    97    28    98 1
    98    29    99 1
    99    29   100 1
   100    30   101 1
   101    30   102 1
   102    31   103 1
   103    31   104 1
   104    32   105 1
   105    32   106 1
   106    32   107 1
   107    36   108 1
   108    36   109 1
   109    37   110 1
   110    37   111 1
   111    38   112 1
   112    38   113 1
   113    39   114 1
   114    39   115 1
   115    40   116 1
   116    40   117 1
   117    41   118 1
   118    41   119 1
   119    42   120 1
   120    42   121 1
   121    43   122 1
   122    45   123 1
   123    46   124 1
   124    46   125 1
   125    47   126 1
   126    47   127 1
   127    48   128 1
   128    48   129 1
   129    49   130 1
   130    49   131 1
   131    50   132 1
   132    50   133 1
   133    51   134 1
   134    51   135 1
   135    52   136 1
   136    52   137 1
   137    53   138 1
   138    53   139 1
   139    53   140 1
@<TRIPOS>SUBSTRUCTURE
     1 L9R         1 TEMP              0 ****  ****    0 ROOT
