@<TRIPOS>MOLECULE
molecule
   52    52     1     0     0
SMALL
bcc


@<TRIPOS>ATOM
      1 C1           0.0000     0.0000     0.0000 c          1 L9X       0.871600
      2 N1           1.9970     1.1990    -0.6930 nz         1 L9X      -0.785600
      3 C2           6.0210     1.1920     4.9680 c          1 L9X       0.631100
      4 N2           5.3650    -0.2290     3.1130 ns         1 L9X      -0.563900
      5 N1'          9.2830    -4.8130     5.8310 n          1 L9X      -0.483400
      6 O11         -0.6710    -1.1450     0.2010 o          1 L9X      -0.782300
      7 O12         -0.6040     1.0320    -0.1770 o          1 L9X      -0.782300
      8 C2'          9.6720    -5.3180     7.1510 c3         1 L9X       0.096000
      9 C3'          9.1320    -5.6110     4.7670 c          1 L9X       0.708500
     10 O31          7.3530     3.9850     8.7290 o          1 L9X      -0.840300
     11 O32          7.3160     1.7760     8.6730 o          1 L9X      -0.840300
     12 C4'          8.7290    -4.7750     3.5710 c3         1 L9X      -0.153400
     13 C5'          8.6740    -3.3400     4.1360 c3         1 L9X      -0.077600
     14 C6'          9.0460    -3.5180     5.5920 c          1 L9X       0.705500
     15 CA1          1.5070     0.0000     0.0000 c3         1 L9X      -0.012500
     16 CA2          5.8530    -0.2290     4.4940 c3         1 L9X       0.072700
     17 CB1          2.0170     0.0000     1.4430 c3         1 L9X      -0.044400
     18 CB2          7.2010    -0.9500     4.5590 c3         1 L9X       0.018700
     19 CD1          4.0440    -0.1270     2.8650 c          1 L9X       0.733100
     20 OE1          3.2600    -0.0340     3.7850 o          1 L9X      -0.629100
     21 CG1          3.5420    -0.1260     1.4450 c3         1 L9X      -0.397400
     22 SG2          6.9990    -2.6600     3.9890 ss         1 L9X      -0.363200
     23 HN1          1.8340     2.0040    -0.1220 hn         1 L9X       0.440800
     24 HN2          6.0140    -0.2790     2.3530 hn         1 L9X       0.323500
     25 HN3          6.6470     0.6780     6.8400 hn         1 L9X       0.334500
     26 H1'         11.5300    -6.2330     7.7230 hc         1 L9X       0.045033
     27 H1'A        11.6370    -5.2050     6.2870 hc         1 L9X       0.045033
     28 H1'B        11.5030    -4.4730     7.8920 hc         1 L9X       0.045033
     29 H2'          9.3080    -6.3310     7.2720 h1         1 L9X       0.074700
     30 H2'A         9.2440    -4.6860     7.9190 h1         1 L9X       0.074700
     31 H4'          7.7540    -5.0780     3.2080 hc         1 L9X       0.093200
     32 H4'A         9.4740    -4.8470     2.7890 hc         1 L9X       0.093200
     33 H5'          9.3960    -2.7070     3.6350 h1         1 L9X       0.099700
     34 HA2          5.1390    -0.7390     5.1300 h1         1 L9X       0.110700
     35 HA3          5.6710     3.3300     6.6320 h1         1 L9X       0.048200
     36 HA3A         7.3330     3.3170     6.0250 h1         1 L9X       0.048200
     37 HB1          1.5840    -0.8360     1.9780 hc         1 L9X       0.096200
     38 HB1A         1.7300     0.9260     1.9270 hc         1 L9X       0.096200
     39 HB2          7.5100    -0.9730     5.5970 h1         1 L9X       0.091200
     40 HB2A         8.0850    -0.7880     3.9550 h1         1 L9X       0.091200
     41 HG1          3.3500    -0.7960     2.2740 hc         1 L9X       0.123200
     42 HG1A         3.9890    -0.7880     0.7120 hc         1 L9X       0.123200
     43 H23          1.5130     1.3030    -1.5630 hn         1 L9X       0.440800
     44 H24          1.8680    -0.8850    -0.5100 hx         1 L9X       0.092700
     45 O2'          9.1230    -2.6270     6.4100 o          1 L9X      -0.559500
     46 C1'         11.1970    -5.3060     7.2720 c3         1 L9X      -0.111100
     47 N3           6.4630     1.4380     6.2160 ns         1 L9X      -0.538900
     48 C3           7.1290     2.8210     8.0980 c          1 L9X       0.884600
     49 H13          2.9790     1.1060    -0.8660 hn         1 L9X       0.440800
     50 O2           5.7590     2.1140     4.2240 o          1 L9X      -0.629100
     51 O1'          9.2910    -6.8120     4.7610 o          1 L9X      -0.592500
     52 CA3          6.6260     2.8190     6.6770 c3         1 L9X      -0.004000
@<TRIPOS>BOND
     1     1     6 1
     2     1    15 1
     3     2    23 1
     4     3    16 1
     5     4    19 1
     6     4    24 1
     7    50     3 2
     8    48    52 1
     9    48    11 1
    10    47     3 1
    11    47    25 1
    12    46    26 1
    13    46    27 1
    14    46    28 1
    15     5     8 1
    16     7     1 1
    17     8    46 1
    18     8    29 1
    19     8    30 1
    20     9     5 1
    21     9    51 2
    22    10    48 1
    23    12     9 1
    24    12    13 1
    25    12    31 1
    26    12    32 1
    27    13    14 1
    28    13    33 1
    29    14     5 1
    30    14    45 2
    31    15     2 1
    32    16     4 1
    33    16    18 1
    34    16    34 1
    35    52    47 1
    36    52    35 1
    37    52    36 1
    38    17    15 1
    39    17    21 1
    40    17    37 1
    41    17    38 1
    42    18    22 1
    43    18    39 1
    44    18    40 1
    45    19    21 1
    46    20    19 2
    47    21    41 1
    48    21    42 1
    49    22    13 1
    50     2    43 1
    51    15    44 1
    52    49     2 1
@<TRIPOS>SUBSTRUCTURE
     1 L9X         1 TEMP              0 ****  ****    0 ROOT
