@<TRIPOS>MOLECULE
L9X
   52    53     1     0     0
SMALL
bcc


@<TRIPOS>ATOM
      1 C1           0.0000     0.0000     0.0000 c2         1 L9X       0.381000
      2 N1           1.9970     1.1990    -0.6930 nz         1 L9X       0.867000
      3 C2           6.0210     1.1920     4.9680 c2         1 L9X       0.172000
      4 N2           5.3650    -0.2290     3.1130 n7         1 L9X       0.031000
      5 N1'          9.2830    -4.8130     5.8310 n          1 L9X       0.056000
      6 O11         -0.6710    -1.1450     0.2010 o          1 L9X      -0.562000
      7 O12         -0.6040     1.0320    -0.1770 o          1 L9X      -0.562000
      8 C2'          9.6720    -5.3180     7.1510 c3         1 L9X      -0.077000
      9 C3'          9.1320    -5.6110     4.7670 c2         1 L9X       0.240000
     10 O31          7.3530     3.9850     8.7290 o          1 L9X      -0.621000
     11 O32          7.3160     1.7760     8.6730 o          1 L9X      -0.621000
     12 C4'          8.7290    -4.7750     3.5710 c3         1 L9X      -0.120000
     13 C5'          8.6740    -3.3400     4.1360 c3         1 L9X      -0.217000
     14 C6'          9.0460    -3.5180     5.5920 c2         1 L9X       0.237000
     15 CA1          1.5070     0.0000     0.0000 c3         1 L9X      -0.349000
     16 CA2          5.8530    -0.2290     4.4940 c3         1 L9X      -0.042000
     17 CB1          2.0170     0.0000     1.4430 c3         1 L9X      -0.033000
     18 CB2          7.2010    -0.9500     4.5590 c3         1 L9X      -0.177000
     19 CD1          4.0440    -0.1270     2.8650 c3         1 L9X       0.322000
     20 OE1          3.2600    -0.0340     3.7850 o          1 L9X      -0.434000
     21 CG1          3.5420    -0.1260     1.4450 c3         1 L9X      -0.439000
     22 SG2          6.9990    -2.6600     3.9890 ss         1 L9X      -0.053000
     23 HN1          1.8340     2.0040    -0.1220 hn         1 L9X       0.006000
     24 HN2          6.0140    -0.2790     2.3530 hn         1 L9X       0.094000
     25 HN3          6.6470     0.6780     6.8400 hn         1 L9X       0.111000
     26 H1'         11.5300    -6.2330     7.7230 hc         1 L9X       0.051333
     27 H1'A        11.6370    -5.2050     6.2870 hc         1 L9X       0.051333
     28 H1'B        11.5030    -4.4730     7.8920 hc         1 L9X       0.051333
     29 H2'          9.3080    -6.3310     7.2720 h1         1 L9X       0.084000
     30 H2'A         9.2440    -4.6860     7.9190 h1         1 L9X       0.084000
     31 H4'          7.7540    -5.0780     3.2080 hc         1 L9X       0.099500
     32 H4'A         9.4740    -4.8470     2.7890 hc         1 L9X       0.099500
     33 H5'          9.3960    -2.7070     3.6350 h1         1 L9X       0.114000
     34 HA2          5.1390    -0.7390     5.1300 h1         1 L9X       0.122000
     35 HA3          5.6710     3.3300     6.6320 h1         1 L9X       0.066000
     36 HA3A         7.3330     3.3170     6.0250 h1         1 L9X       0.066000
     37 HB1          1.5840    -0.8360     1.9780 hc         1 L9X       0.100500
     38 HB1A         1.7300     0.9260     1.9270 hc         1 L9X       0.100500
     39 HB2          7.5100    -0.9730     5.5970 h1         1 L9X       0.106000
     40 HB2A         8.0850    -0.7880     3.9550 h1         1 L9X       0.106000
     41 HG1          3.3500    -0.7960     2.2740 DU         1 L9X       0.175000
     42 HG1A         3.9890    -0.7880     0.7120 hc         1 L9X       0.117000
     43 H23          1.5130     1.3030    -1.5630 hn         1 L9X       0.006000
     44 H24          1.8680    -0.8850    -0.5100 hx         1 L9X       0.115000
     45 O2'          9.1230    -2.6270     6.4100 o          1 L9X      -0.316000
     46 C1'         11.1970    -5.3060     7.2720 c3         1 L9X      -0.129000
     47 N3           6.4630     1.4380     6.2160 ns         1 L9X       0.067000
     48 C3           7.1290     2.8210     8.0980 c2         1 L9X       0.392000
     49 H13          2.9790     1.1060    -0.8660 hn         1 L9X       0.006000
     50 O2           5.7590     2.1140     4.2240 o          1 L9X      -0.446000
     51 O1'          9.2910    -6.8120     4.7610 o          1 L9X      -0.353000
     52 CA3          6.6260     2.8190     6.6770 c3         1 L9X      -0.142000
@<TRIPOS>BOND
     1     1     6 1   
     2     1     7 1   
     3     1    15 1   
     4     2    15 1   
     5     2    23 1   
     6     2    43 1   
     7     2    49 1   
     8     3    16 1   
     9     3    47 1   
    10     3    50 1   
    11     4    16 1   
    12     4    19 1   
    13     4    24 1   
    14     5     8 1   
    15     5     9 1   
    16     5    14 1   
    17     8    29 1   
    18     8    30 1   
    19     8    46 1   
    20     9    12 1   
    21     9    51 1   
    22    10    48 1   
    23    11    48 1   
    24    12    13 1   
    25    12    31 1   
    26    12    32 1   
    27    13    14 1   
    28    13    22 1   
    29    13    33 1   
    30    14    45 1   
    31    15    17 1   
    32    15    44 1   
    33    16    18 1   
    34    16    34 1   
    35    17    21 1   
    36    17    37 1   
    37    17    38 1   
    38    18    22 1   
    39    18    39 1   
    40    18    40 1   
    41    19    20 1   
    42    19    21 1   
    43    19    41 1   
    44    21    41 1   
    45    21    42 1   
    46    25    47 1   
    47    26    46 1   
    48    27    46 1   
    49    28    46 1   
    50    35    52 1   
    51    36    52 1   
    52    47    52 1   
    53    48    52 1   
@<TRIPOS>SUBSTRUCTURE
     1 L9X         1 TEMP              0 ****  ****    0 ROOT
