@<TRIPOS>MOLECULE
LA1
   76    80     1     0     0
SMALL
bcc


@<TRIPOS>ATOM
      1 O70          0.0000     0.0000     0.0000 o          1 LA1      -0.670100
      2 C69          1.2130     0.0000     0.0000 c          1 LA1       0.587100
      3 N71          1.8860    -0.0030    -1.1680 ns         1 LA1      -0.168900
      4 C73          1.1530    -0.0030    -2.4360 c3         1 LA1       0.074300
      5 C30          1.9670     0.0000     1.3050 c3         1 LA1      -0.071300
      6 C49          3.4250    -0.3870     1.0500 c3         1 LA1      -0.047100
      7 C52          4.1750    -0.4060     2.3580 ca         1 LA1      -0.089300
      8 C59          4.7920     0.7270     2.7920 ca         1 LA1      -0.094000
      9 C58          5.4870     0.7160     4.0130 ca         1 LA1      -0.032000
     10 C61          6.1320     1.8680     4.4970 ca         1 LA1      -0.092000
     11 C63          6.8010     1.8180     5.6820 ca         1 LA1      -0.095000
     12 C65          6.8570     0.6400     6.4250 ca         1 LA1      -0.099000
     13 C67          6.2440    -0.4940     5.9870 ca         1 LA1      -0.084000
     14 C57          5.5440    -0.4810     4.7700 ca         1 LA1      -0.039000
     15 C55          4.9000    -1.6330     4.2850 ca         1 LA1      -0.080000
     16 C53          4.2320    -1.5830     3.1010 ca         1 LA1      -0.109000
     17 N2           1.3570    -0.9660     2.2210 n          1 LA1      -0.034800
     18 C3           1.0620    -0.3260     3.4880 c3         1 LA1       0.039000
     19 C6          -0.4070    -0.5850     3.8540 c3         1 LA1      -0.077400
     20 C9          -0.6530    -2.0590     3.8770 c          1 LA1       0.574500
     21 O10         -1.2120    -2.3800     4.9040 o          1 LA1      -0.748500
     22 N11         -0.4520    -3.0700     3.1470 n          1 LA1      -0.035800
     23 C12          0.4140    -3.2710     2.0070 c3         1 LA1      -0.051300
     24 C14         -0.4510    -3.6230     0.7950 c3         1 LA1      -0.043400
     25 C17         -1.5120    -2.5380     0.5940 c3         1 LA1      -0.092700
     26 C23         -2.2070    -2.7480    -0.7520 c3         1 LA1      -0.021600
     27 C19         -2.5440    -2.6190     1.7200 c3         1 LA1      -0.021600
     28 C1           1.2530    -2.0900     1.6550 c          1 LA1       0.624500
     29 O32          1.9500    -2.2320     0.6730 o          1 LA1      -0.740500
     30 C27         -1.2370    -4.2480     3.5220 c3         1 LA1       0.062300
     31 C33         -0.4440    -5.0940     4.4840 ca         1 LA1      -0.227600
     32 C39          0.4630    -6.0000     4.0110 ca         1 LA1      -0.068000
     33 C38          1.1850    -6.7660     4.9450 ca         1 LA1      -0.152300
     34 C41          2.1370    -7.7120     4.5340 ca         1 LA1      -0.084000
     35 C43          2.8120    -8.4380     5.4690 ca         1 LA1      -0.100000
     36 C45          2.5700    -8.2550     6.8280 ca         1 LA1      -0.096000
     37 C47          1.6530    -7.3460     7.2620 ca         1 LA1      -0.139300
     38 C37          0.9370    -6.5770     6.3270 ca         1 LA1       0.375600
     39 N36          0.0320    -5.6770     6.7240 nb         1 LA1      -0.574000
     40 C34         -0.6400    -4.9580     5.8570 ca         1 LA1       0.439200
     41 H71          2.8860     0.0330    -1.1690 hn         1 LA1       0.184500
     42 H731         0.8880    -1.0190    -2.7010 h1         1 LA1       0.012367
     43 H732         1.7770     0.4220    -3.2140 h1         1 LA1       0.012367
     44 H733         0.2520     0.5900    -2.3330 h1         1 LA1       0.012367
     45 H30          1.9270     0.9890     1.7440 h1         1 LA1       0.055700
     46 H491         3.4650    -1.3710     0.5980 hc         1 LA1       0.064700
     47 H492         3.8800     0.3360     0.3840 hc         1 LA1       0.064700
     48 H59          4.6580     1.6570     2.2530 ha         1 LA1       0.108000
     49 H61          6.0970     2.7900     3.9310 ha         1 LA1       0.106000
     50 H63          7.2970     2.7070     6.0520 ha         1 LA1       0.102000
     51 H65          7.3960     0.6280     7.3640 ha         1 LA1       0.103000
     52 H67          6.2960    -1.4030     6.5760 ha         1 LA1       0.108000
     53 H55          4.9350    -2.5550     4.8520 ha         1 LA1       0.110000
     54 H53          3.7430    -2.4740     2.7270 ha         1 LA1       0.114000
     55 H31          1.7040    -0.7370     4.2580 h1         1 LA1       0.041700
     56 H32          1.2290     0.7410     3.4010 h1         1 LA1       0.041700
     57 H61A        -1.0500    -0.1230     3.1140 hc         1 LA1       0.057200
     58 H62         -0.6140    -0.1690     4.8320 hc         1 LA1       0.057200
     59 H12          1.0720    -4.1050     2.2200 h1         1 LA1       0.060700
     60 H141        -0.9370    -4.5760     0.9620 hc         1 LA1       0.039700
     61 H142         0.1730    -3.6860    -0.0890 hc         1 LA1       0.039700
     62 H17         -1.0380    -1.5640     0.6070 hc         1 LA1       0.078700
     63 H231        -2.8460    -3.6210    -0.6960 hc         1 LA1       0.010033
     64 H232        -1.4630    -2.8940    -1.5250 hc         1 LA1       0.010033
     65 H233        -2.8070    -1.8770    -0.9880 hc         1 LA1       0.010033
     66 H191        -2.7720    -3.6580     1.9270 hc         1 LA1       0.010033
     67 H192        -3.4480    -2.1040     1.4190 hc         1 LA1       0.010033
     68 H193        -2.1430    -2.1520     2.6120 hc         1 LA1       0.010033
     69 H271        -2.1590    -3.9320     3.9940 h1         1 LA1       0.059200
     70 H272        -1.4660    -4.8270     2.6350 h1         1 LA1       0.059200
     71 H39          0.4390    -6.2970     2.9700 ha         1 LA1       0.113000
     72 H41          2.3350    -7.8640     3.4800 ha         1 LA1       0.106000
     73 H43          3.5460    -9.1680     5.1510 ha         1 LA1       0.102000
     74 H45          3.1190    -8.8450     7.5520 ha         1 LA1       0.103000
     75 H47          1.4770    -7.2150     8.3220 ha         1 LA1       0.118000
     76 H34         -1.3680    -4.2420     6.2170 h4         1 LA1       0.012100
@<TRIPOS>BOND
     1     1     2 2   
     2     2     3 1   
     3     2     5 1   
     4     3     4 1   
     5     3    41 1   
     6     4    42 1   
     7     4    43 1   
     8     4    44 1   
     9     5     6 1   
    10     5    17 1   
    11     5    45 1   
    12     6     7 1   
    13     6    46 1   
    14     6    47 1   
    15     7     8 ar  
    16     7    16 ar  
    17     8     9 ar  
    18     8    48 1   
    19     9    10 ar  
    20     9    14 ar  
    21    10    11 ar  
    22    10    49 1   
    23    11    12 ar  
    24    11    50 1   
    25    12    13 ar  
    26    12    51 1   
    27    13    14 ar  
    28    13    52 1   
    29    14    15 ar  
    30    15    16 ar  
    31    15    53 1   
    32    16    54 1   
    33    17    18 1   
    34    17    28 1   
    35    18    19 1   
    36    18    55 1   
    37    18    56 1   
    38    19    20 1   
    39    19    57 1   
    40    19    58 1   
    41    20    21 2   
    42    20    22 1   
    43    22    23 1   
    44    22    30 1   
    45    23    24 1   
    46    23    28 1   
    47    23    59 1   
    48    24    25 1   
    49    24    60 1   
    50    24    61 1   
    51    25    26 1   
    52    25    27 1   
    53    25    62 1   
    54    26    63 1   
    55    26    64 1   
    56    26    65 1   
    57    27    66 1   
    58    27    67 1   
    59    27    68 1   
    60    28    29 2   
    61    30    31 1   
    62    30    69 1   
    63    30    70 1   
    64    31    32 ar  
    65    31    40 ar  
    66    32    33 ar  
    67    32    71 1   
    68    33    34 ar  
    69    33    38 ar  
    70    34    35 ar  
    71    34    72 1   
    72    35    36 ar  
    73    35    73 1   
    74    36    37 ar  
    75    36    74 1   
    76    37    38 ar  
    77    37    75 1   
    78    38    39 ar  
    79    39    40 ar  
    80    40    76 1   
@<TRIPOS>SUBSTRUCTURE
     1 LA1         1 TEMP              0 ****  ****    0 ROOT
