@<TRIPOS>MOLECULE
LA3
   61    65     1     0     0
SMALL
bcc


@<TRIPOS>ATOM
      1 C1           0.0000     0.0000     0.0000 ca         1 LA3      -0.103000
      2 C2           1.3880     0.0010     2.4010 ca         1 LA3      -0.095500
      3 C3           1.3940     0.0000     0.0000 cp         1 LA3      -0.038000
      4 C4          -0.6870     0.0070     1.1980 ca         1 LA3      -0.095500
      5 C5           0.0050     0.0070     2.3950 ca         1 LA3      -0.092300
      6 C6           2.0850     0.0000     1.2100 ca         1 LA3      -0.103000
      7 C7           2.1390    -0.0010    -1.2830 cp         1 LA3      -0.024000
      8 C8          -0.7520     0.0080     3.6990 c3         1 LA3       0.022900
      9 C9           3.5240    -0.0040    -3.6860 ca         1 LA3       0.051100
     10 C10          3.5310    -0.0080    -1.2820 ca         1 LA3      -0.090000
     11 C11          1.4440    -0.0030    -2.4920 ca         1 LA3      -0.104000
     12 C12          2.1370    -0.0040    -3.6850 ca         1 LA3      -0.084000
     13 C13          4.2230    -0.0080    -2.4800 ca         1 LA3       0.060100
     14 O14          5.5600    -0.0150    -2.7510 os         1 LA3      -0.313900
     15 O15          4.4260    -0.0060    -4.7110 os         1 LA3      -0.313900
     16 C16          5.6720    -0.4260    -4.1260 c3         1 LA3       0.432200
     17 C17         -0.9630     1.4500     4.1640 c3         1 LA3      -0.097700
     18 C18         -1.8540     2.1690     3.1830 c          1 LA3       0.572100
     19 C19         -1.6240     1.4480     5.5450 c3         1 LA3      -0.081400
     20 C20         -0.6670     0.8740     6.5580 c          1 LA3       0.569100
     21 O21          0.4720     0.6090     6.2350 o          1 LA3      -0.624100
     22 N22         -1.0760     0.6560     7.8230 ns         1 LA3      -0.055400
     23 O23         -0.1770     0.1180     8.7760 oh         1 LA3      -0.438100
     24 O24         -2.9490     1.7220     2.9180 o          1 LA3      -0.665100
     25 N25         -1.4300     3.3080     2.6010 ns         1 LA3      -0.171900
     26 C26         -2.2960     4.0070     1.6470 c3         1 LA3       0.077000
     27 C27         -3.1820     4.9980     2.3700 ca         1 LA3      -0.118300
     28 C28         -1.4460     4.8580     0.6780 c3         1 LA3       0.176100
     29 O29         -0.2150     5.2470     1.2890 oh         1 LA3      -0.581800
     30 C30         -2.3510     6.0850     0.4350 c3         1 LA3       0.011900
     31 C31         -4.6870     7.1150     3.3250 ca         1 LA3      -0.096000
     32 C32         -3.9040     4.8660     3.5450 ca         1 LA3      -0.068000
     33 C33         -3.2140     6.1920     1.6740 ca         1 LA3      -0.089300
     34 C34         -3.9680     7.2490     2.1540 ca         1 LA3      -0.085000
     35 C35         -4.6550     5.9210     4.0220 ca         1 LA3      -0.108000
     36 H1          -0.5430    -0.0000    -0.9370 ha         1 LA3       0.111000
     37 H2           1.9250     0.0010     3.3420 ha         1 LA3       0.121500
     38 H4          -1.7700     0.0090     1.2000 ha         1 LA3       0.121500
     39 H6           3.1690    -0.0020     1.2160 ha         1 LA3       0.111000
     40 H8          -0.1840    -0.5330     4.4460 hc         1 LA3       0.043700
     41 H8A         -1.7130    -0.4710     3.5590 hc         1 LA3       0.043700
     42 H10          4.0720     0.0340    -0.3440 ha         1 LA3       0.123000
     43 H11          0.3610     0.0070    -2.4950 ha         1 LA3       0.117000
     44 H12          1.5960    -0.0050    -4.6240 ha         1 LA3       0.111000
     45 H16          6.5040     0.0750    -4.6050 h2         1 LA3       0.011700
     46 H16A         5.7780    -1.5030    -4.1920 h2         1 LA3       0.011700
     47 H17         -0.0070     1.9550     4.2220 hc         1 LA3       0.053700
     48 H19         -2.5220     0.8440     5.5150 hc         1 LA3       0.037200
     49 H19A        -1.8790     2.4630     5.8250 hc         1 LA3       0.037200
     50 HN22        -2.0140     0.8800     8.0910 hn         1 LA3       0.155500
     51 HO23        -0.6160     0.0270     9.6060 ho         1 LA3       0.393000
     52 HN25        -0.5460     3.7030     2.8560 hn         1 LA3       0.199500
     53 H26         -2.9000     3.3000     1.0920 h1         1 LA3       0.068700
     54 H28         -1.2720     4.3230    -0.2480 h1         1 LA3       0.013700
     55 HO29         0.4590     5.2990     0.6320 ho         1 LA3       0.398000
     56 H30         -2.9780     5.9090    -0.4300 hc         1 LA3       0.031700
     57 H30A        -1.7390     6.9740     0.3410 hc         1 LA3       0.031700
     58 H31         -5.2760     7.9450     3.6970 ha         1 LA3       0.102000
     59 H32         -3.8800     3.9310     4.0910 ha         1 LA3       0.111000
     60 H34         -3.9940     8.1850     1.6080 ha         1 LA3       0.101000
     61 H35         -5.2190     5.8140     4.9410 ha         1 LA3       0.102000
@<TRIPOS>BOND
     1     1     3 ar  
     2     1     4 ar  
     3     1    36 1   
     4     2     5 ar  
     5     2     6 ar  
     6     2    37 1   
     7     3     6 ar  
     8     3     7 1   
     9     4     5 ar  
    10     4    38 1   
    11     5     8 1   
    12     6    39 1   
    13     7    10 ar  
    14     7    11 ar  
    15     8    17 1   
    16     8    40 1   
    17     8    41 1   
    18     9    12 ar  
    19     9    13 ar  
    20     9    15 1   
    21    10    13 ar  
    22    10    42 1   
    23    11    12 ar  
    24    11    43 1   
    25    12    44 1   
    26    13    14 1   
    27    14    16 1   
    28    15    16 1   
    29    16    45 1   
    30    16    46 1   
    31    17    18 1   
    32    17    19 1   
    33    17    47 1   
    34    18    24 2   
    35    18    25 1   
    36    19    20 1   
    37    19    48 1   
    38    19    49 1   
    39    20    21 2   
    40    20    22 1   
    41    22    23 1   
    42    22    50 1   
    43    23    51 1   
    44    25    26 1   
    45    25    52 1   
    46    26    27 1   
    47    26    28 1   
    48    26    53 1   
    49    27    32 ar  
    50    27    33 ar  
    51    28    29 1   
    52    28    30 1   
    53    28    54 1   
    54    29    55 1   
    55    30    33 1   
    56    30    56 1   
    57    30    57 1   
    58    31    34 ar  
    59    31    35 ar  
    60    31    58 1   
    61    32    35 ar  
    62    32    59 1   
    63    33    34 ar  
    64    34    60 1   
    65    35    61 1   
@<TRIPOS>SUBSTRUCTURE
     1 LA3         1 TEMP              0 ****  ****    0 ROOT
