@<TRIPOS>MOLECULE
molecule
   61    65     1     0     0
SMALL
bcc


@<TRIPOS>ATOM
      1 C1           0.0000     0.0000     0.0000 ca         1 LA3      -0.122500
      2 C2           1.3880     0.0010     2.4010 ca         1 LA3      -0.118500
      3 C3           1.3940     0.0000     0.0000 cp         1 LA3      -0.039000
      4 C4          -0.6870     0.0070     1.1980 ca         1 LA3      -0.118500
      5 C5           0.0050     0.0070     2.3950 ca         1 LA3      -0.086300
      6 C6           2.0850     0.0000     1.2100 ca         1 LA3      -0.122500
      7 C7           2.1390    -0.0010    -1.2830 cp         1 LA3      -0.028000
      8 C8          -0.7520     0.0080     3.6990 c3         1 LA3      -0.030100
      9 C9           3.5240    -0.0040    -3.6860 ca         1 LA3       0.046100
     10 C10          3.5310    -0.0080    -1.2820 ca         1 LA3      -0.108000
     11 C11          1.4440    -0.0030    -2.4920 ca         1 LA3      -0.121000
     12 C12          2.1370    -0.0040    -3.6850 ca         1 LA3      -0.112000
     13 C13          4.2230    -0.0080    -2.4800 ca         1 LA3       0.051100
     14 O14          5.5600    -0.0150    -2.7510 os         1 LA3      -0.324900
     15 O15          4.4260    -0.0060    -4.7110 os         1 LA3      -0.325900
     16 C16          5.6720    -0.4260    -4.1260 c3         1 LA3       0.331200
     17 C17         -0.9630     1.4500     4.1640 c3         1 LA3      -0.119700
     18 C18         -1.8540     2.1690     3.1830 c          1 LA3       0.660100
     19 C19         -1.6240     1.4480     5.5450 c3         1 LA3      -0.138400
     20 C20         -0.6670     0.8740     6.5580 c          1 LA3       0.670100
     21 O21          0.4720     0.6090     6.2350 o          1 LA3      -0.581100
     22 N22         -1.0760     0.6560     7.8230 ns         1 LA3      -0.471400
     23 O23         -0.1770     0.1180     8.7760 oh         1 LA3      -0.362100
     24 O24         -2.9490     1.7220     2.9180 o          1 LA3      -0.626100
     25 N25         -1.4300     3.3080     2.6010 ns         1 LA3      -0.561900
     26 C26         -2.2960     4.0070     1.6470 c3         1 LA3       0.168000
     27 C27         -3.1820     4.9980     2.3700 ca         1 LA3      -0.107300
     28 C28         -1.4460     4.8580     0.6780 c3         1 LA3       0.134100
     29 O29         -0.2150     5.2470     1.2890 oh         1 LA3      -0.600800
     30 C30         -2.3510     6.0850     0.4350 c3         1 LA3      -0.059100
     31 C31         -4.6870     7.1150     3.3250 ca         1 LA3      -0.122000
     32 C32         -3.9040     4.8660     3.5450 ca         1 LA3      -0.094000
     33 C33         -3.2140     6.1920     1.6740 ca         1 LA3      -0.084300
     34 C34         -3.9680     7.2490     2.1540 ca         1 LA3      -0.115000
     35 C35         -4.6550     5.9210     4.0220 ca         1 LA3      -0.133000
     36 H1          -0.5430    -0.0000    -0.9370 ha         1 LA3       0.132500
     37 H2           1.9250     0.0010     3.3420 ha         1 LA3       0.146000
     38 H4          -1.7700     0.0090     1.2000 ha         1 LA3       0.146000
     39 H6           3.1690    -0.0020     1.2160 ha         1 LA3       0.132500
     40 H8          -0.1840    -0.5330     4.4460 hc         1 LA3       0.072700
     41 H8A         -1.7130    -0.4710     3.5590 hc         1 LA3       0.072700
     42 H10          4.0720     0.0340    -0.3440 ha         1 LA3       0.148000
     43 H11          0.3610     0.0070    -2.4950 ha         1 LA3       0.143000
     44 H12          1.5960    -0.0050    -4.6240 ha         1 LA3       0.143000
     45 H16          6.5040     0.0750    -4.6050 h2         1 LA3       0.069200
     46 H16A         5.7780    -1.5030    -4.1920 h2         1 LA3       0.069200
     47 H17         -0.0070     1.9550     4.2220 hc         1 LA3       0.080700
     48 H19         -2.5220     0.8440     5.5150 hc         1 LA3       0.073200
     49 H19A        -1.8790     2.4630     5.8250 hc         1 LA3       0.073200
     50 HN22        -2.0140     0.8800     8.0910 hn         1 LA3       0.320500
     51 HO23        -0.6160     0.0270     9.6060 ho         1 LA3       0.399000
     52 HN25        -0.5460     3.7030     2.8560 hn         1 LA3       0.339500
     53 H26         -2.9000     3.3000     1.0920 h1         1 LA3       0.096700
     54 H28         -1.2720     4.3230    -0.2480 h1         1 LA3       0.049700
     55 HO29         0.4590     5.2990     0.6320 ho         1 LA3       0.410000
     56 H30         -2.9780     5.9090    -0.4300 hc         1 LA3       0.064700
     57 H30A        -1.7390     6.9740     0.3410 hc         1 LA3       0.064700
     58 H31         -5.2760     7.9450     3.6970 ha         1 LA3       0.130000
     59 H32         -3.8800     3.9310     4.0910 ha         1 LA3       0.136000
     60 H34         -3.9940     8.1850     1.6080 ha         1 LA3       0.128000
     61 H35         -5.2190     5.8140     4.9410 ha         1 LA3       0.129000
@<TRIPOS>BOND
     1     4     1 ar
     2     3     1 ar
     3     1    36 1
     4     2     5 ar
     5     2     6 ar
     6     2    37 1
     7     6     3 ar
     8     3     7 1
     9     5     4 ar
    10     4    38 1
    11     8     5 1
    12     6    39 1
    13    10     7 ar
    14     7    11 ar
    15    17     8 1
    16     8    40 1
    17     8    41 1
    18    13     9 ar
    19     9    12 ar
    20     9    15 1
    21    10    13 ar
    22    10    42 1
    23    11    12 ar
    24    11    43 1
    25    12    44 1
    26    13    14 1
    27    14    16 1
    28    16    15 1
    29    16    45 1
    30    16    46 1
    31    18    17 1
    32    19    17 1
    33    17    47 1
    34    24    18 2
    35    18    25 1
    36    19    20 1
    37    19    48 1
    38    19    49 1
    39    22    20 1
    40    20    21 2
    41    22    23 1
    42    22    50 1
    43    23    51 1
    44    26    25 1
    45    25    52 1
    46    27    26 1
    47    26    28 1
    48    26    53 1
    49    33    27 ar
    50    32    27 ar
    51    30    28 1
    52    28    29 1
    53    28    54 1
    54    29    55 1
    55    33    30 1
    56    30    56 1
    57    30    57 1
    58    31    34 ar
    59    31    35 ar
    60    31    58 1
    61    35    32 ar
    62    32    59 1
    63    34    33 ar
    64    34    60 1
    65    35    61 1
@<TRIPOS>SUBSTRUCTURE
     1 LA3         1 TEMP              0 ****  ****    0 ROOT
