@<TRIPOS>MOLECULE
LA6
   36    35     1     0     0
SMALL
bcc


@<TRIPOS>ATOM
      1 C1          0.5180   -0.8770    0.5120 c3        1 LA6      0.238600
      2 O1          1.1430    0.2850    0.1720 os        1 LA6     -0.556200
      3 C2         -0.5560   -0.7180    1.5900 c2        1 LA6      0.106300
      4 F2         -0.7440   -1.8860    2.2830 f         1 LA6     -0.245500
      5 C3         -1.3270    0.3530    1.9100 c2        1 LA6     -0.213400
      6 C4         -2.3490    0.2830    2.9870 c3        1 LA6     -0.032900
      7 C5         -1.2180    1.6710    1.2360 c3        1 LA6     -0.059200
      8 C6         -2.5120    2.0650    0.5410 c3        1 LA6     -0.039200
      9 C7         -2.2780    3.1880   -0.3980 c2        1 LA6     -0.086200
     10 C8         -3.1310    4.2080   -0.5980 c2        1 LA6     -0.254400
     11 C9         -4.4200    4.3490    0.1210 c3        1 LA6     -0.022900
     12 PA          1.1530    0.7460   -1.4910 p5        1 LA6      1.581800
     13 PB          4.3940    0.7290   -2.3230 p5        1 LA6      1.453900
     14 C10        -2.8220    5.2800   -1.5740 c3        1 LA6     -0.022900
     15 O1A         0.3370   -0.3290   -2.1280 o         1 LA6     -0.922500
     16 O1B         4.3220    1.0930   -3.7790 o         1 LA6     -0.953167
     17 O2A         0.4740    2.0750   -1.3690 o         1 LA6     -0.922500
     18 O2B         5.0350    1.7640   -1.4440 o         1 LA6     -0.953167
     19 O3A         2.6570    0.7540   -1.8350 os        1 LA6     -0.795800
     20 O3B         4.8130   -0.6850   -2.0380 o         1 LA6     -0.953167
     21 H1          1.2700   -1.6030    0.9500 h1        1 LA6      0.038700
     22 H1A         0.0150   -1.3560   -0.3830 h1        1 LA6      0.038700
     23 H4         -2.2130   -0.6170    3.6360 hc        1 LA6      0.006700
     24 H4A        -3.3750    0.2410    2.5410 hc        1 LA6      0.006700
     25 H4B        -2.2940    1.1940    3.6340 hc        1 LA6      0.006700
     26 H5         -0.3760    1.6690    0.4610 hc        1 LA6      0.100200
     27 H5A        -0.9590    2.4500    2.0010 hc        1 LA6      0.100200
     28 H6         -2.8840    1.1900   -0.0610 hc        1 LA6      0.019200
     29 H6A        -3.3040    2.3120    1.2980 hc        1 LA6      0.019200
     30 H7         -1.3070    3.1030   -0.9590 ha        1 LA6      0.251000
     31 H9         -4.2470    4.5230    1.2130 hc        1 LA6      0.011533
     32 H9A        -5.0160    5.2080   -0.2760 hc        1 LA6      0.011533
     33 H9B        -5.0370    3.4210    0.0170 hc        1 LA6      0.011533
     34 H10        -2.8000    6.2780   -1.0670 hc        1 LA6      0.011533
     35 H10A       -3.6040    5.3210   -2.3740 hc        1 LA6      0.011533
     36 H10B       -1.8290    5.1050   -2.0580 hc        1 LA6      0.011533
@<TRIPOS>BOND
     1    1    2 1   
     2    1    3 1   
     3    1   21 1   
     4    1   22 1   
     5    2   12 1   
     6    3    4 1   
     7    3    5 2   
     8    5    6 1   
     9    5    7 1   
    10    6   23 1   
    11    6   24 1   
    12    6   25 1   
    13    7    8 1   
    14    7   26 1   
    15    7   27 1   
    16    8    9 1   
    17    8   28 1   
    18    8   29 1   
    19    9   10 2   
    20    9   30 1   
    21   10   11 1   
    22   10   14 1   
    23   11   31 1   
    24   11   32 1   
    25   11   33 1   
    26   12   15 1   
    27   12   17 1   
    28   12   19 1   
    29   13   16 1   
    30   13   18 1   
    31   13   19 1   
    32   13   20 1   
    33   14   34 1   
    34   14   35 1   
    35   14   36 1   
@<TRIPOS>SUBSTRUCTURE
     1 LA6         1 TEMP              0 ****  ****    0 ROOT
