@<TRIPOS>MOLECULE
molecule
   36    35     1     0     0
SMALL
bcc


@<TRIPOS>ATOM
      1 C1           0.0000     0.0000     0.0000 c3         1 LA6       0.237600
      2 O1           1.4290     0.0000     0.0000 os         1 LA6      -0.583200
      3 C2          -0.5030     0.0000     1.4210 c2         1 LA6       0.164300
      4 F2          -0.2510    -1.0550     2.2260 f          1 LA6      -0.185500
      5 C3          -1.1840     1.0260     1.8770 c2         1 LA6      -0.267400
      6 C4          -1.8070     0.9670     3.2480 c3         1 LA6      -0.031900
      7 C5          -1.3430     2.2610     1.0290 c3         1 LA6       0.015800
      8 C6          -2.6380     2.1630     0.2200 c3         1 LA6      -0.082200
      9 C7          -2.7970     3.3980    -0.6280 c2         1 LA6      -0.434200
     10 C8          -3.8980     4.1050    -0.5560 c2         1 LA6      -0.085400
     11 C9          -5.0590     3.6080     0.2670 c3         1 LA6      -0.068400
     12 PA           2.3060    -0.0000    -1.3500 p5         1 LA6       1.410800
     13 PB           5.1910    -0.4930    -1.8190 p5         1 LA6       1.306900
     14 C10         -4.0020     5.4140    -1.2950 c3         1 LA6      -0.068400
     15 O1A          1.9020    -1.1430    -2.2010 o          1 LA6      -0.852500
     16 O1B          5.6840     0.8110    -2.6240 o          1 LA6      -0.906833
     17 O2A          2.0600     1.3760    -2.1500 o          1 LA6      -0.852500
     18 O2B          6.3520    -0.9730    -0.8130 o          1 LA6      -0.906833
     19 O3A          3.8660    -0.1340    -0.9770 os         1 LA6      -0.709800
     20 O3B          4.8870    -1.5790    -2.7780 o          1 LA6      -0.906833
     21 H1          -0.3610     0.8840    -0.5110 h1         1 LA6       0.042700
     22 H1A         -0.3610    -0.8850    -0.5110 h1         1 LA6       0.042700
     23 H4          -1.0850     0.5820     3.9570 hc         1 LA6       0.019700
     24 H4A         -2.6720     0.3150     3.2230 hc         1 LA6       0.019700
     25 H4B         -2.1130     1.9620     3.5480 hc         1 LA6       0.019700
     26 H5          -0.5010     2.3460     0.3530 hc         1 LA6       0.075700
     27 H5A         -1.3820     3.1350     1.6680 hc         1 LA6       0.075700
     28 H6          -3.4800     2.0780     0.8960 hc         1 LA6       0.020700
     29 H6A         -2.5990     1.2890    -0.4190 hc         1 LA6       0.020700
     30 H7          -3.2070     2.4430    -0.9340 ha         1 LA6       0.301000
     31 H9          -5.3110     2.5990    -0.0350 hc         1 LA6       0.028200
     32 H9A         -5.9140     4.2560     0.1120 hc         1 LA6       0.028200
     33 H9B         -4.7880     3.6140     1.3160 hc         1 LA6       0.028200
     34 H10         -4.0690     6.2270    -0.5820 hc         1 LA6       0.028200
     35 H10A        -3.1250     5.5490    -1.9160 hc         1 LA6       0.028200
     36 H10B        -4.8880     5.4070    -1.9180 hc         1 LA6       0.028200
@<TRIPOS>BOND
     1     3     1 1
     2     1     2 1
     3     1    21 1
     4     1    22 1
     5    12     2 1
     6     5     3 2
     7     3     4 1
     8     6     5 1
     9     7     5 1
    10     6    23 1
    11     6    24 1
    12     6    25 1
    13     8     7 1
    14     7    26 1
    15     7    27 1
    16     9     8 1
    17     8    28 1
    18     8    29 1
    19     9    10 2
    20     9    30 1
    21    14    10 1
    22    10    11 1
    23    11    31 1
    24    11    32 1
    25    11    33 1
    26    15    12 1
    27    12    19 1
    28    12    17 1
    29    19    13 1
    30    20    13 1
    31    13    18 1
    32    13    16 1
    33    14    34 1
    34    14    35 1
    35    14    36 1
@<TRIPOS>SUBSTRUCTURE
     1 LA6         1 TEMP              0 ****  ****    0 ROOT
