@<TRIPOS>MOLECULE
molecule
   19    19     1     0     0
SMALL
bcc


@<TRIPOS>ATOM
      1 O1           0.0000     0.0000     0.0000 oh         1 LA7      -0.496100
      2 C4           1.3590     0.0000     0.0000 ca         1 LA7       0.012800
      3 C3           2.0640     0.0000     1.1990 ca         1 LA7      -0.159000
      4 C2           3.4490     0.0000     1.1490 ca         1 LA7      -0.220300
      5 C5           2.0620    -0.0060    -1.1960 ca         1 LA7       0.411600
      6 C6           1.3120    -0.0130    -2.5020 c3         1 LA7       0.104100
      7 O            1.0750     1.3320    -2.9220 oh         1 LA7      -0.596800
      8 N            3.3810    -0.0070    -1.2000 nb         1 LA7      -0.660000
      9 C1           4.0790    -0.0010    -0.0820 ca         1 LA7       0.406600
     10 C            5.5850    -0.0010    -0.1460 c3         1 LA7      -0.138400
     11 H1          -0.3140    -0.6530     0.6030 ho         1 LA7       0.417000
     12 H3           1.5440     0.0010     2.1480 ha         1 LA7       0.142000
     13 H2           4.0300     0.0030     2.0630 ha         1 LA7       0.140000
     14 H61C         1.8990    -0.5280    -3.2530 h1         1 LA7       0.038700
     15 H62C         0.3650    -0.5230    -2.3720 h1         1 LA7       0.038700
     16 H            0.8560     1.3410    -3.8390 ho         1 LA7       0.403000
     17 HC1          5.9700     0.8590     0.3880 hc         1 LA7       0.052033
     18 HC2          5.9030     0.0450    -1.1810 hc         1 LA7       0.052033
     19 HC3          5.9660    -0.9080     0.3080 hc         1 LA7       0.052033
@<TRIPOS>BOND
     1     1     2 1
     2     2     3 ar
     3     2     5 ar
     4     3     4 ar
     5     4     9 ar
     6     5     6 1
     7     5     8 ar
     8     6     7 1
     9     8     9 ar
    10     9    10 1
    11     1    11 1
    12     3    12 1
    13     4    13 1
    14     6    14 1
    15     6    15 1
    16     7    16 1
    17    10    17 1
    18    10    18 1
    19    10    19 1
@<TRIPOS>SUBSTRUCTURE
     1 LA7         1 TEMP              0 ****  ****    0 ROOT
