@<TRIPOS>MOLECULE
LA7
   19    19     1     0     0
SMALL
bcc


@<TRIPOS>ATOM
      1 O1         -0.0680   -0.3530    0.0480 oh        1 LA7     -0.489100
      2 C4          1.3000   -0.2230    0.0490 ca        1 LA7      0.007800
      3 C3          2.0830   -0.3750    1.2000 ca        1 LA7     -0.172000
      4 C2          3.4630   -0.2350    1.0850 ca        1 LA7     -0.209300
      5 C5          1.9310    0.0700   -1.1940 ca        1 LA7      0.360600
      6 C6          1.0690    0.2120   -2.4270 c3        1 LA7      0.093100
      7 O           1.4430    1.2760   -3.2710 oh        1 LA7     -0.590800
      8 N           3.2680    0.1960   -1.2930 nb        1 LA7     -0.652000
      9 C1          4.0260    0.0500   -0.1780 ca        1 LA7      0.388600
     10 C           5.5080    0.2020   -0.2930 c3        1 LA7     -0.144400
     11 H1         -0.3550   -0.4750    0.9660 ho        1 LA7      0.423000
     12 H3          1.6170   -0.5970    2.1700 ha        1 LA7      0.140000
     13 H2          4.1100   -0.3450    1.9670 ha        1 LA7      0.145000
     14 H61C        0.0120    0.4510   -2.1230 h1        1 LA7      0.064200
     15 H62C        1.0910   -0.7620   -2.9900 h1        1 LA7      0.064200
     16 H           2.3560    1.1330   -3.5490 ho        1 LA7      0.414000
     17 HC1         5.7690    1.2460   -0.5980 hc        1 LA7      0.052367
     18 HC2         5.9190   -0.4990   -1.0620 hc        1 LA7      0.052367
     19 HC3         5.9960   -0.0180    0.6870 hc        1 LA7      0.052367
@<TRIPOS>BOND
     1    1    2 1   
     2    1   11 1   
     3    2    3 ar  
     4    2    5 ar  
     5    3    4 ar  
     6    3   12 1   
     7    4    9 ar  
     8    4   13 1   
     9    5    6 1   
    10    5    8 ar  
    11    6    7 1   
    12    6   14 1   
    13    6   15 1   
    14    7   16 1   
    15    8    9 ar  
    16    9   10 1   
    17   10   17 1   
    18   10   18 1   
    19   10   19 1   
@<TRIPOS>SUBSTRUCTURE
     1 LA7         1 TEMP              0 ****  ****    0 ROOT
