@<TRIPOS>MOLECULE
molecule
   39    41     1     0     0
SMALL
bcc


@<TRIPOS>ATOM
      1 N1           0.0000     0.0000     0.0000 nb         1 LA8      -0.826000
      2 C2           1.3210     0.0000     0.0000 ca         1 LA8       0.653900
      3 N3           2.0270     0.0000     1.1110 nb         1 LA8      -0.777000
      4 C4           1.4270     0.0010     2.2960 ca         1 LA8       0.462800
      5 C5           0.0230     0.0010     2.3500 ca         1 LA8      -0.195200
      6 C6          -0.6870     0.0010     1.1370 ca         1 LA8       0.716200
      7 N6          -2.0720     0.0020     1.1270 nv         1 LA8      -1.025500
      8 N7          -0.3260     0.0020     3.6580 nc         1 LA8      -0.620100
      9 C8           0.7480     0.0020     4.3930 cd         1 LA8       0.434700
     10 N9           1.8550     0.0010     3.5990 na         1 LA8      -0.245000
     11 PA           4.6250     1.7800     9.4660 p5         1 LA8       1.421800
     12 PB           5.2630     4.3410    10.8150 p5         1 LA8       1.309900
     13 C1'          3.2480     0.0020     4.0540 c3         1 LA8       0.249800
     14 O1A          5.7530     1.1010    10.1420 o          1 LA8      -0.857000
     15 O1B          4.0900     4.4490    11.9120 o          1 LA8      -0.884500
     16 C2'          4.6910    -1.4350     5.3900 c3         1 LA8       0.083100
     17 O2'          6.0400    -1.7500     5.0350 oh         1 LA8      -0.574800
     18 O2A          3.2390     1.3170    10.1410 o          1 LA8      -0.857000
     19 O2B          6.4810     3.7850    11.4470 o          1 LA8      -0.884500
     20 C3'          3.7860    -1.4440     4.1380 c3         1 LA8       0.066100
     21 O3'          4.5460    -1.7660     2.9720 oh         1 LA8      -0.573800
     22 O3A          4.7900     3.3740     9.6170 os         1 LA8      -0.710800
     23 O3B          5.5850     5.8040    10.2270 o          1 LA8      -0.884500
     24 C4'          4.5950     0.0180     5.9130 c3         1 LA8       0.132100
     25 O4'          3.3370     0.5100     5.4020 os         1 LA8      -0.371600
     26 C5'          4.5920     0.0340     7.4430 c3         1 LA8       0.240400
     27 O5'          4.6190     1.3860     7.9050 os         1 LA8      -0.584200
     28 H2           1.8420    -0.0010    -0.9500 h5         1 LA8       0.034100
     29 HN6         -2.5670    -0.5040     0.4200 hn         1 LA8       0.428300
     30 HN6A        -2.5770     0.5190     1.8190 hn         1 LA8       0.428300
     31 H8           0.7600     0.0030     5.4760 h5         1 LA8       0.106800
     32 H1'          3.8670     0.5930     3.3900 h2         1 LA8       0.099700
     33 H2'          4.3160    -2.1290     6.1330 h1         1 LA8       0.048700
     34 HO2'         6.2110    -2.6580     5.2240 ho         1 LA8       0.383000
     35 H3'          2.9680    -2.1430     4.2700 h1         1 LA8       0.039700
     36 HO3'         4.4080    -2.6710     2.7470 ho         1 LA8       0.385000
     37 H4'          5.4150     0.6110     5.5250 h1         1 LA8       0.085700
     38 H5'          5.4650    -0.4910     7.8110 h1         1 LA8       0.031200
     39 H5'A         3.6970    -0.4540     7.8070 h1         1 LA8       0.031200
@<TRIPOS>BOND
     1     2     1 ar
     2     1     6 ar
     3     2     3 ar
     4     2    28 1
     5     3     4 ar
     6     4    10 1
     7     4     5 ar
     8     6     5 ar
     9     5     8 1
    10     6     7 1
    11     7    29 1
    12     7    30 1
    13     9     8 2
    14    10     9 1
    15     9    31 1
    16    13    10 1
    17    14    11 1
    18    11    27 1
    19    11    22 1
    20    11    18 1
    21    19    12 1
    22    15    12 1
    23    12    22 1
    24    12    23 1
    25    20    13 1
    26    25    13 1
    27    13    32 1
    28    17    16 1
    29    16    24 1
    30    16    20 1
    31    16    33 1
    32    17    34 1
    33    20    21 1
    34    20    35 1
    35    21    36 1
    36    26    24 1
    37    24    25 1
    38    24    37 1
    39    26    27 1
    40    26    38 1
    41    26    39 1
@<TRIPOS>SUBSTRUCTURE
     1 LA8         1 TEMP              0 ****  ****    0 ROOT
