@<TRIPOS>MOLECULE
LA9
   61    61     1     0     0
SMALL
bcc


@<TRIPOS>ATOM
      1 C28          0.0000     0.0000     0.0000 c          1 LA9       0.554100
      2 O30          1.2130     0.0000     0.0000 o          1 LA9      -0.689100
      3 C29         -0.7540     0.0000     1.3050 c3         1 LA9      -0.070100
      4 N27         -0.6730    -0.0000    -1.1680 ns         1 LA9      -0.136900
      5 C22          0.0600    -0.0010    -2.4360 c3         1 LA9      -0.074300
      6 C20         -0.8030     0.6000    -3.5160 c          1 LA9       0.529100
      7 O21         -1.9200     0.9900    -3.2520 o          1 LA9      -0.702100
      8 C23          0.4240    -1.4370    -2.8150 c3         1 LA9      -0.038400
      9 C24          1.4000    -2.0050    -1.7820 c3         1 LA9      -0.070700
     10 C25          1.6660    -3.4800    -2.0900 c3         1 LA9       0.001900
     11 C26          2.7160    -1.2260    -1.8420 c3         1 LA9       0.001900
     12 N19         -0.3330     0.7050    -4.7750 ns         1 LA9      -0.034900
     13 C17         -1.1730     1.2880    -5.8240 c3         1 LA9      -0.047500
     14 C18         -0.3430     2.2710    -6.6520 c3         1 LA9       0.017900
     15 P14         -1.8020    -0.0370    -6.9060 p5         1 LA9       0.324400
     16 O16         -0.5640    -0.8140    -7.5790 o          1 LA9      -0.606000
     17 C13         -2.8470     0.6900    -8.2120 c3         1 LA9      -0.006600
     18 C04         -3.4750    -0.4300    -9.0440 c3         1 LA9      -0.115700
     19 C05         -4.6220     0.1400    -9.8810 c3         1 LA9       0.012600
     20 C06         -5.3300    -0.9990   -10.6170 c3         1 LA9      -0.047100
     21 C07         -6.4600    -0.4380   -11.4430 ca         1 LA9      -0.020300
     22 C08         -6.2330    -0.0440   -12.7480 ca         1 LA9      -0.104500
     23 C09         -7.2700     0.4700   -13.5050 ca         1 LA9      -0.126000
     24 C10         -8.5330     0.5910   -12.9550 ca         1 LA9      -0.154000
     25 C11         -8.7590     0.1970   -11.6500 ca         1 LA9      -0.126000
     26 C12         -7.7240    -0.3230   -10.8950 ca         1 LA9      -0.104500
     27 C02         -2.4330    -1.0230    -9.9570 c          1 LA9       0.981600
     28 O01         -2.7590    -2.0270   -10.7850 o          1 LA9      -0.891300
     29 O03         -1.3030    -0.5940    -9.9430 o          1 LA9      -0.891300
     30 O15         -2.6040    -0.9890    -6.1050 o          1 LA9      -0.606000
     31 H29         -1.2670     0.9470     1.4250 hc         1 LA9       0.013700
     32 H29A        -1.4780    -0.8060     1.3030 hc         1 LA9       0.013700
     33 H29B        -0.0590    -0.1410     2.1230 hc         1 LA9       0.013700
     34 HN27        -1.6740     0.0110    -1.1690 hn         1 LA9       0.198500
     35 H22          0.9650     0.5850    -2.3300 h1         1 LA9       0.055700
     36 H23         -0.4740    -2.0430    -2.8350 hc         1 LA9       0.044700
     37 H23A         0.8870    -1.4460    -3.7940 hc         1 LA9       0.044700
     38 H24          0.9720    -1.9140    -0.7920 hc         1 LA9       0.038700
     39 H25          2.0820    -3.5720    -3.0870 hc         1 LA9       0.000867
     40 H25A         2.3680    -3.8790    -1.3680 hc         1 LA9       0.000867
     41 H25B         0.7370    -4.0340    -2.0340 hc         1 LA9       0.000867
     42 H26          3.3650    -1.5510    -1.0390 hc         1 LA9       0.000867
     43 H26A         3.2000    -1.4080    -2.7940 hc         1 LA9       0.000867
     44 H26B         2.5140    -0.1670    -1.7370 hc         1 LA9       0.000867
     45 HN19         0.6040     0.4220    -4.9840 hn         1 LA9       0.159500
     46 H17         -2.0060     1.8110    -5.3710 h1         1 LA9       0.055700
     47 H18         -0.9990     2.8430    -7.2970 hc         1 LA9      -0.007633
     48 H18A         0.1880     2.9440    -5.9890 hc         1 LA9      -0.007633
     49 H18B         0.3690     1.7230    -7.2570 hc         1 LA9      -0.007633
     50 H13         -3.6300     1.2850    -7.7580 hc         1 LA9       0.002700
     51 H13A        -2.2400     1.3180    -8.8520 hc         1 LA9       0.002700
     52 H04         -3.8570    -1.1990    -8.3840 hc         1 LA9       0.047700
     53 H05         -5.3280     0.6440    -9.2320 hc         1 LA9      -0.017300
     54 H05A        -4.2280     0.8460   -10.6020 hc         1 LA9      -0.017300
     55 H06         -5.7250    -1.7050    -9.8960 hc         1 LA9       0.067700
     56 H06A        -4.6240    -1.5030   -11.2670 hc         1 LA9       0.067700
     57 H08         -5.2450    -0.1450   -13.1800 ha         1 LA9       0.113500
     58 H09         -7.0910     0.7850   -14.5260 ha         1 LA9       0.081000
     59 H10         -9.3450     0.9950   -13.5480 ha         1 LA9       0.078000
     60 H11         -9.7540     0.2730   -11.2260 ha         1 LA9       0.081000
     61 H12         -8.0060    -0.6980    -9.9190 ha         1 LA9       0.113500
@<TRIPOS>BOND
     1     1     2 2   
     2     1     3 1   
     3     1     4 1   
     4     3    31 1   
     5     3    32 1   
     6     3    33 1   
     7     4     5 1   
     8     4    34 1   
     9     5     6 1   
    10     5     8 1   
    11     5    35 1   
    12     6     7 2   
    13     6    12 1   
    14     8     9 1   
    15     8    36 1   
    16     8    37 1   
    17     9    10 1   
    18     9    11 1   
    19     9    38 1   
    20    10    39 1   
    21    10    40 1   
    22    10    41 1   
    23    11    42 1   
    24    11    43 1   
    25    11    44 1   
    26    12    13 1   
    27    12    45 1   
    28    13    14 1   
    29    13    15 1   
    30    13    46 1   
    31    14    47 1   
    32    14    48 1   
    33    14    49 1   
    34    15    16 1   
    35    15    17 1   
    36    15    30 1   
    37    17    18 1   
    38    17    50 1   
    39    17    51 1   
    40    18    19 1   
    41    18    27 1   
    42    18    52 1   
    43    19    20 1   
    44    19    53 1   
    45    19    54 1   
    46    20    21 1   
    47    20    55 1   
    48    20    56 1   
    49    21    22 ar  
    50    21    26 ar  
    51    22    23 ar  
    52    22    57 1   
    53    23    24 ar  
    54    23    58 1   
    55    24    25 ar  
    56    24    59 1   
    57    25    26 ar  
    58    25    60 1   
    59    26    61 1   
    60    27    28 1   
    61    27    29 1   
@<TRIPOS>SUBSTRUCTURE
     1 LA9         1 TEMP              0 ****  ****    0 ROOT
