@<TRIPOS>MOLECULE
LAB
   56    58     1     0     0
SMALL
bcc


@<TRIPOS>ATOM
      1 O5           0.0000     0.0000     0.0000 o          1 LAB      -0.619500
      2 C18          1.2160     0.0000     0.0000 c          1 LAB       0.697100
      3 N1           1.9830     0.0000     1.0860 ns         1 LAB      -0.187900
      4 C16          3.4190     0.0000     0.9240 c3         1 LAB      -0.020300
      5 C17          3.8240    -0.0000    -0.5550 c3         1 LAB       0.089700
      6 S1           2.2350    -0.0070    -1.4440 ss         1 LAB      -0.346700
      7 C15          3.9980     1.2460     1.6000 c3         1 LAB       0.378600
      8 O4           3.4330     2.4080     0.9760 oh         1 LAB      -0.589800
      9 C14          3.6250     1.2560     3.0800 c3         1 LAB      -0.149400
     10 C13          4.2730     0.0980     3.8310 c3         1 LAB       0.219100
     11 O2           4.2550     0.3230     5.2600 os         1 LAB      -0.406900
     12 C12          5.7200    -0.0950     3.3640 c3         1 LAB      -0.114400
     13 C11          6.1720     1.1630     2.6220 c3         1 LAB       0.147100
     14 O3           5.4120     1.2760     1.4180 os         1 LAB      -0.427600
     15 C10          7.6660     1.0920     2.3060 c3         1 LAB      -0.039400
     16 C9           8.3410     2.3980     2.6950 c3         1 LAB      -0.026400
     17 C8           8.9400     2.3960     4.1010 c3         1 LAB       0.013500
     18 C20          8.3390     1.3150     4.9750 c3         1 LAB      -0.053100
     19 C7           8.8030     3.7710     4.6790 c2         1 LAB      -0.135200
     20 C6           8.3810     4.2060     5.8070 c2         1 LAB      -0.142200
     21 C5           7.8500     3.5000     7.0120 c3         1 LAB       0.018800
     22 C4           6.3270     3.6460     7.0760 c3         1 LAB      -0.043200
     23 C3           5.7190     2.4920     7.8200 c2         1 LAB       0.002600
     24 C19          5.8400     2.4580     9.3320 c3         1 LAB       0.034100
     25 C2           5.0730     1.4980     7.2260 ce         1 LAB      -0.258200
     26 C1           4.8800     1.3990     5.7750 c          1 LAB       0.736300
     27 O1           5.2620     2.2850     5.0440 o          1 LAB      -0.598000
     28 HN1          1.5740     0.0000     1.9990 hn         1 LAB       0.196500
     29 H16          3.8260    -0.8850     1.3990 h1         1 LAB       0.045700
     30 H171         4.3870     0.8940    -0.7940 h1         1 LAB       0.062200
     31 H172         4.3930    -0.8910    -0.7920 h1         1 LAB       0.062200
     32 HO4          4.1220     2.9220     0.5880 ho         1 LAB       0.416000
     33 H141         2.5480     1.1760     3.1720 hc         1 LAB       0.068200
     34 H142         3.9540     2.1890     3.5200 hc         1 LAB       0.068200
     35 H13          3.7180    -0.8060     3.6130 h1         1 LAB       0.037700
     36 H121         6.3590    -0.2570     4.2240 hc         1 LAB       0.043700
     37 H122         5.7750    -0.9470     2.6980 hc         1 LAB       0.043700
     38 H11          5.9770     2.0290     3.2440 h1         1 LAB       0.080700
     39 H101         7.8010     0.9190     1.2460 hc         1 LAB       0.034200
     40 H102         8.1120     0.2770     2.8630 hc         1 LAB       0.034200
     41 H91          9.1340     2.5990     1.9840 hc         1 LAB       0.021200
     42 H92          7.6110     3.1960     2.6320 hc         1 LAB       0.021200
     43 H8           9.9980     2.1860     4.0060 hc         1 LAB       0.021700
     44 H201         8.9360     1.2010     5.8710 hc         1 LAB       0.021700
     45 H202         7.3270     1.5910     5.2480 hc         1 LAB       0.021700
     46 H203         8.3220     0.3780     4.4300 hc         1 LAB       0.021700
     47 H7           9.1310     4.5400     3.9890 ha         1 LAB       0.086000
     48 H6           8.4070     5.2820     5.9260 ha         1 LAB       0.084000
     49 H51          8.1090     2.4490     6.9560 hc         1 LAB       0.022700
     50 H52          8.2900     3.9300     7.9040 hc         1 LAB       0.022700
     51 H41          5.9280     3.6720     6.0690 hc         1 LAB       0.057200
     52 H42          6.0770     4.5700     7.5830 hc         1 LAB       0.057200
     53 H191         4.8700     2.2520     9.7670 hc         1 LAB       0.016367
     54 H192         6.1990     3.4170     9.6870 hc         1 LAB       0.016367
     55 H193         6.5380     1.6820     9.6200 hc         1 LAB       0.016367
     56 H2           4.6660     0.7060     7.8420 ha         1 LAB       0.122000
@<TRIPOS>BOND
     1     1     2 2   
     2     2     3 1   
     3     2     6 1   
     4     3     4 1   
     5     3    28 1   
     6     4     5 1   
     7     4     7 1   
     8     4    29 1   
     9     5     6 1   
    10     5    30 1   
    11     5    31 1   
    12     7     8 1   
    13     7     9 1   
    14     7    14 1   
    15     8    32 1   
    16     9    10 1   
    17     9    33 1   
    18     9    34 1   
    19    10    11 1   
    20    10    12 1   
    21    10    35 1   
    22    11    26 1   
    23    12    13 1   
    24    12    36 1   
    25    12    37 1   
    26    13    14 1   
    27    13    15 1   
    28    13    38 1   
    29    15    16 1   
    30    15    39 1   
    31    15    40 1   
    32    16    17 1   
    33    16    41 1   
    34    16    42 1   
    35    17    18 1   
    36    17    19 1   
    37    17    43 1   
    38    18    44 1   
    39    18    45 1   
    40    18    46 1   
    41    19    20 2   
    42    19    47 1   
    43    20    21 1   
    44    20    48 1   
    45    21    22 1   
    46    21    49 1   
    47    21    50 1   
    48    22    23 1   
    49    22    51 1   
    50    22    52 1   
    51    23    24 1   
    52    23    25 2   
    53    24    53 1   
    54    24    54 1   
    55    24    55 1   
    56    25    26 1   
    57    25    56 1   
    58    26    27 2   
@<TRIPOS>SUBSTRUCTURE
     1 LAB         1 TEMP              0 ****  ****    0 ROOT
