@<TRIPOS>MOLECULE
molecule
   11    10     1     0     0
SMALL
bcc


@<TRIPOS>ATOM
      1 C1           0.0000     0.0000     0.0000 c          1 LAC       0.883600
      2 C2           1.5070     0.0000     0.0000 c3         1 LAC       0.035100
      3 C3           2.0160     0.0000     1.4420 c3         1 LAC      -0.079100
      4 O1          -0.6030    -0.9060    -0.5240 o          1 LAC      -0.843300
      5 O2           1.9840    -1.1660    -0.6730 oh         1 LAC      -0.601800
      6 OXT         -0.6720     1.0050     0.5810 o          1 LAC      -0.843300
      7 H2           1.8680     0.8850    -0.5100 h1         1 LAC       0.010700
      8 H31          3.0930    -0.1220     1.4450 hc         1 LAC       0.023700
      9 H32          1.7580     0.9390     1.9170 hc         1 LAC       0.023700
     10 H33          1.5590    -0.8170     1.9870 hc         1 LAC       0.023700
     11 HO2          2.4650    -0.9100    -1.4420 ho         1 LAC       0.366000
@<TRIPOS>BOND
     1     1     2 1
     2     1     4 1
     3     1     6 1
     4     2     3 1
     5     2     5 1
     6     2     7 1
     7     3     8 1
     8     3     9 1
     9     3    10 1
    10     5    11 1
@<TRIPOS>SUBSTRUCTURE
     1 LAC         1 TEMP              0 ****  ****    0 ROOT
