@<TRIPOS>MOLECULE
LAC
   11    10     1     0     0
SMALL
bcc


@<TRIPOS>ATOM
      1 C1          0.1160    0.1520   -0.1770 c         1 LAC      0.892600
      2 C2          1.6520    0.1370    0.0260 c3        1 LAC      0.013100
      3 C3          1.9900   -0.0780    1.4890 c3        1 LAC     -0.089100
      4 O1         -0.3790   -0.8100   -0.8360 o         1 LAC     -0.840300
      5 O2          2.2800   -0.8680   -0.7550 oh        1 LAC     -0.651800
      6 OXT        -0.5450    1.1070    0.3120 o         1 LAC     -0.840300
      7 H2          2.0810    1.1150   -0.3260 h1        1 LAC      0.031700
      8 H31         1.4560    0.6870    2.1010 hc        1 LAC      0.020033
      9 H32         1.6640   -1.0950    1.8130 hc        1 LAC      0.020033
     10 H33         3.0890    0.0100    1.6590 hc        1 LAC      0.020033
     11 HO2         1.5740   -1.4490   -1.0820 ho        1 LAC      0.422000
@<TRIPOS>BOND
     1    1    2 1   
     2    1    4 1   
     3    1    6 1   
     4    2    3 1   
     5    2    5 1   
     6    2    7 1   
     7    3    8 1   
     8    3    9 1   
     9    3   10 1   
    10    5   11 1   
@<TRIPOS>SUBSTRUCTURE
     1 LAC         1 TEMP              0 ****  ****    0 ROOT
