@<TRIPOS>MOLECULE
LAD
   59    61     1     0     0
SMALL
bcc


@<TRIPOS>ATOM
      1 N            0.0000     0.0000     0.0000 nz         1 LAD       0.062400
      2 CA           1.4680     0.0000     0.0000 c3         1 LAD      -0.171500
      3 CB           1.9780     0.0000     1.4410 c3         1 LAD      -0.023400
      4 CG           1.4690     1.2470     2.1640 c3         1 LAD      -0.033400
      5 CD           1.9790     1.2460     3.6050 c3         1 LAD      -0.027400
      6 CE           1.4690     2.4950     4.3280 c3         1 LAD      -0.051200
      7 NZ           1.9590     2.4940     5.7130 nz         1 LAD       0.092400
      8 C            1.9710    -1.2290    -0.7120 c          1 LAD       0.755100
      9 O            1.3180    -2.2450    -0.6950 o          1 LAD      -0.531000
     10 PA           3.6810    -2.5090    -2.1240 p5         1 LAD       0.887800
     11 O5'          5.0990    -2.1880    -2.8150 os         1 LAD      -0.455200
     12 C5'          5.5190    -3.3860    -3.4700 c3         1 LAD       0.246400
     13 C4'          6.8680    -3.1480    -4.1510 c3         1 LAD       0.146100
     14 O4'          7.8600    -2.8110    -3.1660 os         1 LAD      -0.389600
     15 C1'          9.1120    -3.3690    -3.6210 c3         1 LAD       0.141800
     16 N9          10.0420    -3.5260    -2.5020 na         1 LAD       0.210000
     17 C4          11.4120    -3.4940    -2.5750 ca         1 LAD       0.231800
     18 N3          12.2960    -3.3170    -3.5510 nb         1 LAD      -0.601000
     19 C2          13.5880    -3.3310    -3.2980 ca         1 LAD       0.631900
     20 N1          14.0700    -3.5130    -2.0820 nb         1 LAD      -0.657000
     21 C6          13.2620    -3.6920    -1.0410 ca         1 LAD       0.591200
     22 N6          13.7760    -3.8830     0.2290 nv         1 LAD      -0.644500
     23 C5          11.8750    -3.6850    -1.2620 ca         1 LAD      -0.186200
     24 N7          10.7840    -3.8300    -0.4720 nc         1 LAD      -0.510100
     25 C8           9.7080    -3.7380    -1.1980 cd         1 LAD       0.272700
     26 C2'          8.7050    -4.7490    -4.1960 c3         1 LAD       0.128100
     27 O2'          9.6490    -5.1940    -5.1710 oh         1 LAD      -0.543800
     28 C3'          7.3350    -4.4360    -4.8540 c3         1 LAD       0.132100
     29 O3'          7.4940    -4.2200    -6.2580 oh         1 LAD      -0.555800
     30 O1A          2.7050    -2.9110    -3.1630 o          1 LAD      -0.610500
     31 O2A          3.8590    -3.7070    -1.0640 o          1 LAD      -0.610500
     32 O3A          3.1430    -1.1960    -1.3640 os         1 LAD      -0.413500
     33 H2A         -0.3340     0.8800    -0.3400 hn         1 LAD       0.228133
     34 H1          -0.3340    -0.1460     0.9320 hn         1 LAD       0.228133
     35 HA           1.8290     0.8850    -0.5100 hx         1 LAD       0.100700
     36 HB2          3.0620     0.0010     1.4410 hc         1 LAD       0.068200
     37 HB1          1.6180    -0.8850     1.9520 hc         1 LAD       0.068200
     38 HG2          0.3860     1.2470     2.1640 hc         1 LAD       0.017700
     39 HG1          1.8300     2.1320     1.6540 hc         1 LAD       0.017700
     40 HD2          1.6180     0.3610     4.1160 hc         1 LAD       0.046700
     41 HD1          3.0620     1.2460     3.6050 hc         1 LAD       0.046700
     42 HE2          0.3860     2.4950     4.3280 hx         1 LAD       0.084200
     43 HE1          1.8300     3.3800     3.8180 hx         1 LAD       0.084200
     44 HZ2          2.9590     2.4980     5.7130 hn         1 LAD       0.228133
     45 HZ1          1.6280     1.6750     6.1830 hn         1 LAD       0.228133
     46 H5'2         4.7840    -3.6670    -4.2140 h1         1 LAD       0.021200
     47 H5'1         5.6180    -4.1810    -2.7410 h1         1 LAD       0.021200
     48 H4'          6.7840    -2.3470    -4.8750 h1         1 LAD       0.041700
     49 H1'          9.5420    -2.7480    -4.3970 h2         1 LAD       0.070700
     50 H2          14.2810    -3.1890    -4.1180 h5         1 LAD      -0.000900
     51 H62         13.9630    -4.8080     0.5600 hn         1 LAD       0.278800
     52 H61         13.9670    -3.0940     0.8150 hn         1 LAD       0.278800
     53 H8           8.6950    -3.8150    -0.8210 h5         1 LAD       0.044800
     54 H2'          8.5900    -5.4760    -3.4010 h1         1 LAD       0.022700
     55 H2O1         9.7420    -6.1300    -5.1140 ho         1 LAD       0.390000
     56 H3'          6.6360    -5.2410    -4.6660 h1         1 LAD       0.020700
     57 H3O1         6.9150    -4.7950    -6.7310 ho         1 LAD       0.391000
     58 HN3         -0.3330    -0.7360    -0.5910 hn         1 LAD       0.228133
     59 HZ3          1.6250     3.3110     6.1850 hn         1 LAD       0.228133
@<TRIPOS>BOND
     1     1     2 1   
     2     1    33 1   
     3     1    34 1   
     4     1    58 1   
     5     2     3 1   
     6     2     8 1   
     7     2    35 1   
     8     3     4 1   
     9     3    36 1   
    10     3    37 1   
    11     4     5 1   
    12     4    38 1   
    13     4    39 1   
    14     5     6 1   
    15     5    40 1   
    16     5    41 1   
    17     6     7 1   
    18     6    42 1   
    19     6    43 1   
    20     7    44 1   
    21     7    45 1   
    22     7    59 1   
    23     8     9 2   
    24     8    32 1   
    25    10    11 1   
    26    10    30 1   
    27    10    31 1   
    28    10    32 1   
    29    11    12 1   
    30    12    13 1   
    31    12    46 1   
    32    12    47 1   
    33    13    14 1   
    34    13    28 1   
    35    13    48 1   
    36    14    15 1   
    37    15    16 1   
    38    15    26 1   
    39    15    49 1   
    40    16    17 1   
    41    16    25 1   
    42    17    18 ar  
    43    17    23 ar  
    44    18    19 ar  
    45    19    20 ar  
    46    19    50 1   
    47    20    21 ar  
    48    21    22 1   
    49    21    23 ar  
    50    22    51 1   
    51    22    52 1   
    52    23    24 1   
    53    24    25 2   
    54    25    53 1   
    55    26    27 1   
    56    26    28 1   
    57    26    54 1   
    58    27    55 1   
    59    28    29 1   
    60    28    56 1   
    61    29    57 1   
@<TRIPOS>SUBSTRUCTURE
     1 LAD         1 TEMP              0 ****  ****    0 ROOT
