@<TRIPOS>MOLECULE
LAE
   36    36     1     0     0
SMALL
bcc


@<TRIPOS>ATOM
      1 C1           0.0000     0.0000     0.0000 c3         1 LAE      -0.090300
      2 C2           1.5140     0.0000     0.0000 c          1 LAE       0.778600
      3 O3           1.9310     0.0000     1.2820 os         1 LAE      -0.400900
      4 C4           0.9730    -0.7570     2.0800 c3         1 LAE       0.221400
      5 C5          -0.3920    -0.5170     1.4020 c3         1 LAE      -0.074400
      6 O10          2.2240    -0.0040    -0.9770 o          1 LAE      -0.570500
      7 N11         -0.5120    -0.8990    -1.0360 ns         1 LAE      -0.196900
      8 C13         -0.8050    -0.4190    -2.2610 c          1 LAE       0.570100
      9 C14         -1.3310    -1.3430    -3.3270 c3         1 LAE      -0.191400
     10 C15         -1.5770    -0.5630    -4.5920 c          1 LAE       0.582100
     11 C18         -2.1080    -1.2610    -5.8180 c3         1 LAE      -0.118400
     12 C19         -2.2670    -0.2500    -6.9540 c3         1 LAE      -0.021400
     13 C22         -2.8050    -0.9580    -8.1980 c3         1 LAE      -0.031400
     14 C25         -2.9640     0.0530    -9.3330 c3         1 LAE      -0.027400
     15 C28         -3.5030    -0.6550   -10.5770 c3         1 LAE       0.005900
     16 O35         -0.6460     0.7580    -2.5040 o          1 LAE      -0.579100
     17 O36         -1.3490     0.6210    -4.6240 o          1 LAE      -0.485100
     18 H11         -0.3750     1.0060    -0.1470 h1         1 LAE       0.090700
     19 H41          0.9570    -0.3850     3.0980 h1         1 LAE       0.019200
     20 H42          1.2200    -1.8110     2.0620 h1         1 LAE       0.019200
     21 H51         -0.9480    -1.4430     1.3260 hc         1 LAE       0.035200
     22 H52         -0.9580     0.2340     1.9410 hc         1 LAE       0.035200
     23 H111        -0.6440    -1.8700    -0.8350 hn         1 LAE       0.172500
     24 H141        -2.2590    -1.7900    -2.9920 hc         1 LAE       0.043700
     25 H142        -0.6030    -2.1230    -3.5200 hc         1 LAE       0.043700
     26 H181        -3.0700    -1.7050    -5.5920 hc         1 LAE       0.029700
     27 H182        -1.4150    -2.0370    -6.1200 hc         1 LAE       0.029700
     28 H191        -2.9600     0.5260    -6.6520 hc         1 LAE       0.029700
     29 H192        -1.3050     0.1940    -7.1790 hc         1 LAE       0.029700
     30 H221        -3.7680    -1.4010    -7.9730 hc         1 LAE       0.011200
     31 H222        -2.1120    -1.7340    -8.5000 hc         1 LAE       0.011200
     32 H251        -2.0010     0.4960    -9.5590 hc         1 LAE       0.015200
     33 H252        -3.6560     0.8290    -9.0310 hc         1 LAE       0.015200
     34 H281        -4.4650    -1.0980   -10.3520 hc         1 LAE      -0.000300
     35 H282        -2.8100    -1.4320   -10.8790 hc         1 LAE      -0.000300
     36 H283        -3.6140     0.0620   -11.3810 hc         1 LAE      -0.000300
@<TRIPOS>BOND
     1     1     2 1   
     2     1     5 1   
     3     1     7 1   
     4     1    18 1   
     5     2     3 1   
     6     2     6 2   
     7     3     4 1   
     8     4     5 1   
     9     4    19 1   
    10     4    20 1   
    11     5    21 1   
    12     5    22 1   
    13     7     8 1   
    14     7    23 1   
    15     8     9 1   
    16     8    16 2   
    17     9    10 1   
    18     9    24 1   
    19     9    25 1   
    20    10    11 1   
    21    10    17 2   
    22    11    12 1   
    23    11    26 1   
    24    11    27 1   
    25    12    13 1   
    26    12    28 1   
    27    12    29 1   
    28    13    14 1   
    29    13    30 1   
    30    13    31 1   
    31    14    15 1   
    32    14    32 1   
    33    14    33 1   
    34    15    34 1   
    35    15    35 1   
    36    15    36 1   
@<TRIPOS>SUBSTRUCTURE
     1 LAE         1 TEMP              0 ****  ****    0 ROOT
