@<TRIPOS>MOLECULE
LAF
   15    14     1     0     0
SMALL
bcc


@<TRIPOS>ATOM
      1 C4         -0.0490   -0.0000   -0.1420 c         1 LAF      0.538100
      2 C5          1.4660    0.0010    0.0540 c3        1 LAF      0.040900
      3 C3         -0.7950   -0.0010    1.1510 c3        1 LAF     -0.159400
      4 C2         -2.2960   -0.0000    1.0180 c3        1 LAF     -0.193400
      5 C1         -2.9640   -0.0010    2.4060 c         1 LAF      0.909600
      6 O4         -0.5430   -0.0000   -1.2710 o         1 LAF     -0.529100
      7 O1         -2.2230   -0.0000    3.4330 o         1 LAF     -0.849300
      8 OH1        -4.2260   -0.0010    2.4450 o         1 LAF     -0.849300
      9 F           2.1800    0.0000   -1.1260 f         1 LAF     -0.245300
     10 H5C1        1.7460    0.9170    0.6460 h1        1 LAF      0.055700
     11 H5C2        1.7470   -0.9130    0.6480 h1        1 LAF      0.055700
     12 H3C1       -0.4840    0.8980    1.7510 hc        1 LAF      0.076700
     13 H3C2       -0.4840   -0.9010    1.7500 hc        1 LAF      0.076700
     14 H2C1       -2.6380    0.9020    0.4530 hc        1 LAF      0.035700
     15 H2C2       -2.6390   -0.9020    0.4520 hc        1 LAF      0.035700
@<TRIPOS>BOND
     1    1    2 1   
     2    1    3 1   
     3    1    6 2   
     4    2    9 1   
     5    2   10 1   
     6    2   11 1   
     7    3    4 1   
     8    3   12 1   
     9    3   13 1   
    10    4    5 1   
    11    4   14 1   
    12    4   15 1   
    13    5    7 1   
    14    5    8 1   
@<TRIPOS>SUBSTRUCTURE
     1 LAF         1 TEMP              0 ****  ****    0 ROOT
