@<TRIPOS>MOLECULE
molecule
   15    14     1     0     0
SMALL
bcc


@<TRIPOS>ATOM
      1 C4           0.0000     0.0000     0.0000 c          1 LAF       0.521100
      2 C5           1.5070     0.0000     0.0000 c3         1 LAF       0.051900
      3 C3          -0.7540     0.0000     1.3030 c3         1 LAF      -0.157400
      4 C2          -2.2580     0.0000     1.0240 c3         1 LAF      -0.174400
      5 C1          -3.0130     0.0000     2.3280 c          1 LAF       0.890600
      6 O4          -0.6040     0.0000    -1.0460 o          1 LAF      -0.513100
      7 O1          -2.4090    -0.0000     3.3740 o          1 LAF      -0.855300
      8 OH1         -4.3540     0.0000     2.3280 o          1 LAF      -0.855300
      9 F            1.9730    -0.0000    -1.3190 f          1 LAF      -0.247300
     10 H5C1         1.8680     0.8840     0.5110 h1         1 LAF       0.055700
     11 H5C2         1.8680    -0.8840     0.5110 h1         1 LAF       0.055700
     12 H3C1        -0.4930     0.8840     1.8710 hc         1 LAF       0.070700
     13 H3C2        -0.4930    -0.8840     1.8710 hc         1 LAF       0.070700
     14 H2C1        -2.5200     0.8840     0.4560 hc         1 LAF       0.042700
     15 H2C2        -2.5200    -0.8840     0.4560 hc         1 LAF       0.042700
@<TRIPOS>BOND
     1     1     2 1
     2     1     3 1
     3     1     6 2
     4     2     9 1
     5     2    10 1
     6     2    11 1
     7     3     4 1
     8     3    12 1
     9     3    13 1
    10     4     5 1
    11     4    14 1
    12     4    15 1
    13     5     7 1
    14     5     8 1
@<TRIPOS>SUBSTRUCTURE
     1 LAF         1 TEMP              0 ****  ****    0 ROOT
