@<TRIPOS>MOLECULE
molecule
   33    33     1     0     0
SMALL
bcc


@<TRIPOS>ATOM
      1 CAA          0.0000     0.0000     0.0000 c3         1 LAH      -0.108100
      2 CAL          1.5310     0.0000     0.0000 c3         1 LAH       0.239100
      3 CAB          2.0390     0.0000     1.4420 c3         1 LAH      -0.108100
      4 OAJ          2.0070    -1.1670    -0.6730 os         1 LAH      -0.603200
      5 PAQ          2.9360    -1.1040    -1.9870 p5         1 LAH       1.351800
      6 OAG          2.2690    -0.2840    -3.0230 o          1 LAH      -0.812500
      7 OAC          4.3540    -0.4400    -1.6100 o          1 LAH      -0.812500
      8 OAK          3.1720    -2.5930    -2.5510 os         1 LAH      -0.587200
      9 CBO          3.8690    -2.8630    -3.7670 c3         1 LAH       0.231100
     10 CBM          2.9410    -3.6020    -4.7360 c3         1 LAH       0.130100
     11 O14          1.8350    -2.7620    -5.0740 oh         1 LAH      -0.546800
     12 CBL          3.7230    -3.9550    -6.0050 c3         1 LAH       0.086100
     13 O10          4.1450    -2.7540    -6.6560 oh         1 LAH      -0.558800
     14 CBN          4.9490    -4.7890    -5.6250 c3         1 LAH       0.137400
     15 OAX          5.7540    -4.0560    -4.6990 os         1 LAH      -0.448600
     16 C8           5.0910    -3.7380    -3.4730 c3         1 LAH       0.328900
     17 OAH          5.9900    -3.0330    -2.6160 oh         1 LAH      -0.524800
     18 H1          -0.3610     0.1350    -1.0120 hc         1 LAH       0.029200
     19 H2          -0.3610    -0.9440     0.3890 hc         1 LAH       0.029200
     20 H3          -0.3610     0.8090     0.6230 hc         1 LAH       0.029200
     21 H4           1.8920     0.8840    -0.5110 h1         1 LAH       0.050700
     22 H5           1.5840     0.8190     1.9860 hc         1 LAH       0.029200
     23 H6           3.1160     0.1190     1.4450 hc         1 LAH       0.029200
     24 H7           1.7790    -0.9380     1.9170 hc         1 LAH       0.029200
     25 H9           4.1930    -1.9330    -4.2180 h1         1 LAH       0.108700
     26 H10          2.5830    -4.5120    -4.2690 h1         1 LAH       0.027700
     27 H11          1.0540    -3.2850    -5.1460 ho         1 LAH       0.378000
     28 H12          3.0890    -4.5290    -6.6710 h1         1 LAH       0.016700
     29 H13          3.9490    -2.8100    -7.5760 ho         1 LAH       0.385000
     30 H14          4.6260    -5.7160    -5.1660 h1         1 LAH       0.035200
     31 H15          5.5280    -5.0040    -6.5150 h1         1 LAH       0.035200
     32 H16          4.7690    -4.6530    -2.9910 h2         1 LAH       0.008700
     33 H17          6.6490    -3.6260    -2.2960 ho         1 LAH       0.385000
@<TRIPOS>BOND
     1    14    15 1
     2    14    12 1
     3    15    16 1
     4    16    17 1
     5    16     9 1
     6    12    13 1
     7    12    10 1
     8    10     9 1
     9    10    11 1
    10     9     8 1
    11     8     5 1
    12     5     6 1
    13     5     7 1
    14     5     4 1
    15     4     2 1
    16     1     2 1
    17     2     3 1
    18     1    18 1
    19     1    19 1
    20     1    20 1
    21     2    21 1
    22     3    22 1
    23     3    23 1
    24     3    24 1
    25     9    25 1
    26    10    26 1
    27    11    27 1
    28    12    28 1
    29    13    29 1
    30    14    30 1
    31    14    31 1
    32    16    32 1
    33    17    33 1
@<TRIPOS>SUBSTRUCTURE
     1 LAH         1 TEMP              0 ****  ****    0 ROOT
