@<TRIPOS>MOLECULE
LAH
   33    33     1     0     0
SMALL
bcc


@<TRIPOS>ATOM
      1 CAA         0.7170    0.5220    0.2440 c3        1 LAH     -0.104100
      2 CAL         1.6490   -0.5090   -0.3810 c3        1 LAH      0.191100
      3 CAB         1.3530   -1.8900    0.1920 c3        1 LAH     -0.104100
      4 OAJ         1.4540   -0.5240   -1.7690 os        1 LAH     -0.567200
      5 PAQ         2.7670   -0.2330   -2.7110 p5        1 LAH      1.437800
      6 OAG         2.2950   -0.1540   -4.1100 o         1 LAH     -0.822000
      7 OAC         3.6390    0.7120   -1.9990 o         1 LAH     -0.822000
      8 OAK         3.3930   -1.7720   -2.5960 os        1 LAH     -0.576200
      9 CBO         3.9010   -2.3520   -3.7560 c3        1 LAH      0.164100
     10 CBM         2.9170   -3.4400   -4.2450 c3        1 LAH      0.100100
     11 O14         1.8390   -2.8810   -4.9760 oh        1 LAH     -0.648800
     12 CBL         3.5600   -4.4690   -5.1870 c3        1 LAH      0.114100
     13 O10         3.7840   -3.9710   -6.4950 oh        1 LAH     -0.612800
     14 CBN         4.8860   -4.9720   -4.6250 c3        1 LAH      0.141400
     15 OAX         5.7830   -3.9300   -4.2980 os        1 LAH     -0.468600
     16 C8          5.2740   -2.9580   -3.3880 c3        1 LAH      0.328900
     17 OAH         6.2400   -1.9420   -3.5130 oh        1 LAH     -0.581800
     18 H1          0.8180    0.5010    1.3550 hc        1 LAH      0.026867
     19 H2          0.9730    1.5430   -0.1260 hc        1 LAH      0.026867
     20 H3         -0.3410    0.3010   -0.0320 hc        1 LAH      0.026867
     21 H4          2.7210   -0.2260   -0.1550 h1        1 LAH      0.059700
     22 H5          2.0340   -2.6470   -0.2650 hc        1 LAH      0.026867
     23 H6          1.5010   -1.8820    1.2970 hc        1 LAH      0.026867
     24 H7          0.3000   -2.1820   -0.0350 hc        1 LAH      0.026867
     25 H9          4.0350   -1.5780   -4.5670 h1        1 LAH      0.086700
     26 H10         2.4980   -3.9750   -3.3480 h1        1 LAH      0.049700
     27 H11         1.7390   -1.9450   -4.7030 ho        1 LAH      0.476000
     28 H12         2.8550   -5.3450   -5.2910 h1        1 LAH      0.037700
     29 H13         3.2690   -3.1560   -6.5880 ho        1 LAH      0.431000
     30 H14         4.6870   -5.5980   -3.7140 h1        1 LAH      0.041700
     31 H15         5.4350   -5.5710   -5.4000 h1        1 LAH      0.041700
     32 H16         5.2580   -3.3880   -2.3470 h2        1 LAH      0.040700
     33 H17         7.1070   -2.3690   -3.5230 ho        1 LAH      0.404000
@<TRIPOS>BOND
     1    1    2 1   
     2    1   18 1   
     3    1   19 1   
     4    1   20 1   
     5    2    3 1   
     6    2    4 1   
     7    2   21 1   
     8    3   22 1   
     9    3   23 1   
    10    3   24 1   
    11    4    5 1   
    12    5    6 1   
    13    5    7 1   
    14    5    8 1   
    15    8    9 1   
    16    9   10 1   
    17    9   16 1   
    18    9   25 1   
    19   10   11 1   
    20   10   12 1   
    21   10   26 1   
    22   11   27 1   
    23   12   13 1   
    24   12   14 1   
    25   12   28 1   
    26   13   29 1   
    27   14   15 1   
    28   14   30 1   
    29   14   31 1   
    30   15   16 1   
    31   16   17 1   
    32   16   32 1   
    33   17   33 1   
@<TRIPOS>SUBSTRUCTURE
     1 LAH         1 TEMP              0 ****  ****    0 ROOT
