@<TRIPOS>MOLECULE
molecule
   81    84     1     0     0
SMALL
bcc


@<TRIPOS>ATOM
      1 C6           0.0000     0.0000     0.0000 c2         1 LAN      -0.100400
      2 C5           1.5050     0.0000     0.0000 c3         1 LAN      -0.033200
      3 C4           2.1040     0.0000     1.4050 c3         1 LAN      -0.075400
      4 C3           1.2600    -0.9430     2.2610 c3         1 LAN      -0.044700
      5 C25          1.9520    -1.3760     3.5340 c3         1 LAN      -0.049000
      6 C26          2.5400    -0.2010     4.3160 c3         1 LAN      -0.081600
      7 C27          3.1250    -2.3110     3.1580 c3         1 LAN      -0.081600
      8 C28          1.0190    -2.1860     4.4360 c3         1 LAN       0.159100
      9 O29          1.6430    -2.3690     5.7120 oh         1 LAN      -0.606800
     10 C30         -0.3280    -1.5020     4.6310 c3         1 LAN      -0.106400
     11 C31         -1.0000    -1.2600     3.2780 c3         1 LAN      -0.067400
     12 C1          -0.1190    -0.3470     2.4290 c3         1 LAN      -0.011800
     13 C2          -0.0780     1.0350     3.0810 c3         1 LAN      -0.087100
     14 C24         -0.7550    -0.1670     1.0560 c2         1 LAN      -0.114400
     15 C23         -2.2610    -0.1850     1.0400 c3         1 LAN      -0.032200
     16 C22         -2.9180     0.1920    -0.2840 c3         1 LAN      -0.066400
     17 C10         -1.9600     1.0340    -1.0920 c3         1 LAN      -0.052000
     18 C11         -1.6470     2.3400    -0.3500 c3         1 LAN      -0.086100
     19 C7          -0.6790     0.2020    -1.3220 c3         1 LAN      -0.024800
     20 C8          -0.9970    -1.1580    -1.9480 c3         1 LAN      -0.075100
     21 C9           0.0720     1.0560    -2.3500 c3         1 LAN      -0.071400
     22 C21         -1.0590     1.5430    -3.2980 c3         1 LAN      -0.081400
     23 C12         -2.3890     1.3780    -2.5210 c3         1 LAN      -0.056700
     24 C13         -3.1690     2.6950    -2.5250 c3         1 LAN      -0.073700
     25 C20         -4.5070     2.4970    -1.8100 c3         1 LAN      -0.096100
     26 C14         -3.4230     3.1350    -3.9680 c3         1 LAN      -0.075400
     27 C15         -4.2030     4.4500    -3.9720 c3         1 LAN      -0.053200
     28 C16         -4.4520     4.8830    -5.3940 c2         1 LAN      -0.183200
     29 C17         -4.1390     6.0960    -5.7730 c2         1 LAN      -0.133400
     30 C19         -4.2240     6.4760    -7.2290 c3         1 LAN      -0.051400
     31 C18         -3.6940     7.1140    -4.7550 c3         1 LAN      -0.051400
     32 H5C1         1.8510     0.8820    -0.5240 hc         1 LAN       0.048200
     33 H5C2         1.8520    -0.8820    -0.5250 hc         1 LAN       0.048200
     34 H4C1         2.0700     1.0010     1.8190 hc         1 LAN       0.048700
     35 H4C2         3.1270    -0.3550     1.3670 hc         1 LAN       0.048700
     36 H3           1.1280    -1.8450     1.6740 hc         1 LAN       0.047700
     37 H261         2.9880     0.5040     3.6260 hc         1 LAN       0.037700
     38 H262         3.2950    -0.5660     5.0010 hc         1 LAN       0.037700
     39 H263         1.7530     0.2910     4.8740 hc         1 LAN       0.037700
     40 H271         2.7960    -3.0180     2.4060 hc         1 LAN       0.037700
     41 H272         3.4560    -2.8480     4.0390 hc         1 LAN       0.037700
     42 H273         3.9450    -1.7220     2.7650 hc         1 LAN       0.037700
     43 H28          0.8530    -3.1550     3.9810 h1         1 LAN       0.027700
     44 H29          1.3900    -3.2040     6.0690 ho         1 LAN       0.398000
     45 H301        -0.9650    -2.1350     5.2370 hc         1 LAN       0.049200
     46 H302        -0.1780    -0.5530     5.1300 hc         1 LAN       0.049200
     47 H311        -1.1340    -2.2060     2.7690 hc         1 LAN       0.044700
     48 H312        -1.9620    -0.7880     3.4340 hc         1 LAN       0.044700
     49 H2C1        -1.0860     1.4180     3.1800 hc         1 LAN       0.039367
     50 H2C2         0.3770     0.9590     4.0610 hc         1 LAN       0.039367
     51 H2C3         0.5050     1.7080     2.4640 hc         1 LAN       0.039367
     52 H231        -2.5870    -1.1840     1.3040 hc         1 LAN       0.045700
     53 H232        -2.6140     0.5040     1.7980 hc         1 LAN       0.045700
     54 H221        -3.8210     0.7590    -0.0900 hc         1 LAN       0.045700
     55 H222        -3.1610    -0.7080    -0.8350 hc         1 LAN       0.045700
     56 H111        -1.1000     2.1170     0.5590 hc         1 LAN       0.038700
     57 H112        -2.5720     2.8440    -0.1000 hc         1 LAN       0.038700
     58 H113        -1.0460     2.9810    -0.9840 hc         1 LAN       0.038700
     59 H8C1        -1.2500    -1.8650    -1.1670 hc         1 LAN       0.036033
     60 H8C2        -0.1320    -1.5160    -2.4920 hc         1 LAN       0.036033
     61 H8C3        -1.8340    -1.0560    -2.6280 hc         1 LAN       0.036033
     62 H9C1         0.7910     0.4540    -2.8920 hc         1 LAN       0.045700
     63 H9C2         0.5530     1.8980    -1.8670 hc         1 LAN       0.045700
     64 H211        -0.9060     2.5850    -3.5520 hc         1 LAN       0.044200
     65 H212        -1.0770     0.9360    -4.1950 hc         1 LAN       0.044200
     66 H12         -2.9800     0.5750    -2.9450 hc         1 LAN       0.055700
     67 H13         -2.5950     3.4570    -2.0120 hc         1 LAN       0.059700
     68 H201        -4.4560     2.9380    -0.8210 hc         1 LAN       0.036367
     69 H202        -4.7160     1.4380    -1.7220 hc         1 LAN       0.036367
     70 H203        -5.2950     2.9750    -2.3780 hc         1 LAN       0.036367
     71 H141        -2.4760     3.2750    -4.4750 hc         1 LAN       0.043700
     72 H142        -3.9970     2.3730    -4.4820 hc         1 LAN       0.043700
     73 H151        -5.1510     4.3100    -3.4670 hc         1 LAN       0.049200
     74 H152        -3.6290     5.2120    -3.4580 hc         1 LAN       0.049200
     75 H16         -4.7710     4.1550    -6.1290 ha         1 LAN       0.123000
     76 H191        -5.2520     6.4060    -7.5610 hc         1 LAN       0.040033
     77 H192        -3.8710     7.4920    -7.3580 hc         1 LAN       0.040033
     78 H193        -3.6090     5.8030    -7.8140 hc         1 LAN       0.040033
     79 H181        -2.7110     6.8490    -4.3850 hc         1 LAN       0.040033
     80 H182        -3.6550     8.0930    -5.2160 hc         1 LAN       0.040033
     81 H183        -4.3970     7.1310    -3.9300 hc         1 LAN       0.040033
@<TRIPOS>BOND
     1     1     2 1
     2     1    14 2
     3     1    19 1
     4     2     3 1
     5     2    32 1
     6     2    33 1
     7     3     4 1
     8     3    34 1
     9     3    35 1
    10     4     5 1
    11     4    12 1
    12     4    36 1
    13     5     6 1
    14     5     7 1
    15     5     8 1
    16     6    37 1
    17     6    38 1
    18     6    39 1
    19     7    40 1
    20     7    41 1
    21     7    42 1
    22     8     9 1
    23     8    10 1
    24     8    43 1
    25     9    44 1
    26    10    11 1
    27    10    45 1
    28    10    46 1
    29    11    12 1
    30    11    47 1
    31    11    48 1
    32    12    13 1
    33    12    14 1
    34    13    49 1
    35    13    50 1
    36    13    51 1
    37    14    15 1
    38    15    16 1
    39    15    52 1
    40    15    53 1
    41    16    17 1
    42    16    54 1
    43    16    55 1
    44    17    18 1
    45    17    19 1
    46    17    23 1
    47    18    56 1
    48    18    57 1
    49    18    58 1
    50    19    20 1
    51    19    21 1
    52    20    59 1
    53    20    60 1
    54    20    61 1
    55    21    22 1
    56    21    62 1
    57    21    63 1
    58    22    23 1
    59    22    64 1
    60    22    65 1
    61    23    24 1
    62    23    66 1
    63    24    25 1
    64    24    26 1
    65    24    67 1
    66    25    68 1
    67    25    69 1
    68    25    70 1
    69    26    27 1
    70    26    71 1
    71    26    72 1
    72    27    28 1
    73    27    73 1
    74    27    74 1
    75    28    29 2
    76    28    75 1
    77    29    30 1
    78    29    31 1
    79    30    76 1
    80    30    77 1
    81    30    78 1
    82    31    79 1
    83    31    80 1
    84    31    81 1
@<TRIPOS>SUBSTRUCTURE
     1 LAN         1 TEMP              0 ****  ****    0 ROOT
