@<TRIPOS>MOLECULE
LAN
   81    84     1     0     0
SMALL
bcc


@<TRIPOS>ATOM
      1 C6          0.0740    0.1610    0.1550 c2        1 LAN     -0.097400
      2 C5          1.5580    0.1240    0.1620 c3        1 LAN     -0.035200
      3 C4          2.1590   -0.1180    1.5330 c3        1 LAN     -0.073400
      4 C3          1.2870   -1.0690    2.3370 c3        1 LAN     -0.045700
      5 C25         2.0120   -1.6570    3.5590 c3        1 LAN     -0.030000
      6 C26         2.6070   -0.6300    4.5080 c3        1 LAN     -0.084600
      7 C27         3.1580   -2.5470    3.0640 c3        1 LAN     -0.084600
      8 C28         1.0260   -2.5770    4.3150 c3        1 LAN      0.145100
      9 O29         1.6680   -2.9830    5.5200 oh        1 LAN     -0.599800
     10 C30        -0.3040   -1.9010    4.6170 c3        1 LAN     -0.111400
     11 C31        -0.9660   -1.4160    3.3490 c3        1 LAN     -0.066400
     12 C1         -0.0920   -0.4200    2.5820 c3        1 LAN      0.003200
     13 C2         -0.0330    0.9010    3.3420 c3        1 LAN     -0.085100
     14 C24        -0.7020   -0.1120    1.2270 c2        1 LAN     -0.117400
     15 C23        -2.1950   -0.0670    1.1770 c3        1 LAN     -0.033200
     16 C22        -2.8360    0.5170   -0.0780 c3        1 LAN     -0.064400
     17 C10        -1.8530    1.3310   -0.8970 c3        1 LAN     -0.035000
     18 C11        -1.4800    2.5930   -0.1270 c3        1 LAN     -0.087100
     19 C7         -0.5950    0.4380   -1.1560 c3        1 LAN     -0.015800
     20 C8         -0.9450   -0.9210   -1.7690 c3        1 LAN     -0.081100
     21 C9          0.1580    1.2430   -2.2210 c3        1 LAN     -0.069400
     22 C21        -0.9390    1.8810   -3.0760 c3        1 LAN     -0.077400
     23 C12        -2.2800    1.7080   -2.3330 c3        1 LAN     -0.053700
     24 C13        -3.1810    2.9300   -2.4910 c3        1 LAN     -0.056700
     25 C20        -4.4820    2.7690   -1.7260 c3        1 LAN     -0.091100
     26 C14        -3.4890    3.1670   -3.9690 c3        1 LAN     -0.078400
     27 C15        -3.8690    4.6090   -4.2420 c3        1 LAN     -0.046200
     28 C16        -4.1900    4.8380   -5.6700 c2        1 LAN     -0.176200
     29 C17        -4.4160    6.0540   -6.1920 c2        1 LAN     -0.125400
     30 C19        -4.7400    6.2420   -7.6260 c3        1 LAN     -0.057400
     31 C18        -4.3540    7.2890   -5.3730 c3        1 LAN     -0.057400
     32 H5C1        1.9580    1.0920   -0.2460 hc        1 LAN      0.048200
     33 H5C2        1.8860   -0.6890   -0.5430 hc        1 LAN      0.048200
     34 H4C1        2.2720    0.8560    2.0750 hc        1 LAN      0.045200
     35 H4C2        3.1870   -0.5480    1.4080 hc        1 LAN      0.045200
     36 H3          1.0710   -1.9610    1.6700 hc        1 LAN      0.048700
     37 H261        3.0350    0.2330    3.9460 hc        1 LAN      0.038367
     38 H262        3.4210   -1.1060    5.1100 hc        1 LAN      0.038367
     39 H263        1.8450   -0.2560    5.2330 hc        1 LAN      0.038367
     40 H271        4.0100   -1.9260    2.7020 hc        1 LAN      0.038367
     41 H272        3.5200   -3.1870    3.9060 hc        1 LAN      0.038367
     42 H273        2.8180   -3.2110    2.2340 hc        1 LAN      0.038367
     43 H28         0.8350   -3.4920    3.6810 h1        1 LAN      0.030700
     44 H29         1.0320   -3.5250    6.0000 ho        1 LAN      0.397000
     45 H301       -0.9790   -2.6350    5.1320 hc        1 LAN      0.046200
     46 H302       -0.1420   -1.0470    5.3250 hc        1 LAN      0.046200
     47 H311       -1.9450   -0.9360    3.6130 hc        1 LAN      0.043200
     48 H312       -1.1850   -2.2940    2.6850 hc        1 LAN      0.043200
     49 H2C1        0.5220    0.7940    4.3020 hc        1 LAN      0.038033
     50 H2C2        0.4680    1.6870    2.7260 hc        1 LAN      0.038033
     51 H2C3       -1.0690    1.2520    3.5720 hc        1 LAN      0.038033
     52 H231       -2.5470    0.5320    2.0620 hc        1 LAN      0.044200
     53 H232       -2.5820   -1.1150    1.3120 hc        1 LAN      0.044200
     54 H221       -3.2560   -0.3080   -0.7120 hc        1 LAN      0.041200
     55 H222       -3.7040    1.1580    0.2290 hc        1 LAN      0.041200
     56 H111       -0.7820    3.2270   -0.7250 hc        1 LAN      0.037367
     57 H112       -0.9860    2.3370    0.8420 hc        1 LAN      0.037367
     58 H113       -2.3960    3.1900    0.0990 hc        1 LAN      0.037367
     59 H8C1       -1.5470   -1.5360   -1.0590 hc        1 LAN      0.036033
     60 H8C2       -0.0000   -1.4740   -1.9950 hc        1 LAN      0.036033
     61 H8C3       -1.5170   -0.7950   -2.7190 hc        1 LAN      0.036033
     62 H9C1        0.8260    0.5890   -2.8320 hc        1 LAN      0.043700
     63 H9C2        0.7920    2.0330   -1.7470 hc        1 LAN      0.043700
     64 H211       -0.9910    1.3850   -4.0770 hc        1 LAN      0.041700
     65 H212       -0.7160    2.9650   -3.2410 hc        1 LAN      0.041700
     66 H12        -2.8340    0.8320   -2.7730 hc        1 LAN      0.047700
     67 H13        -2.6360    3.8320   -2.0920 hc        1 LAN      0.050700
     68 H201       -4.8960    1.7410   -1.8670 hc        1 LAN      0.034033
     69 H202       -5.2410    3.5060   -2.0860 hc        1 LAN      0.034033
     70 H203       -4.3250    2.9420   -0.6350 hc        1 LAN      0.034033
     71 H141       -4.3230    2.4880   -4.2870 hc        1 LAN      0.043200
     72 H142       -2.5960    2.9080   -4.5970 hc        1 LAN      0.043200
     73 H151       -4.7570    4.8960   -3.6140 hc        1 LAN      0.046700
     74 H152       -3.0250    5.2850   -3.9330 hc        1 LAN      0.046700
     75 H16        -4.2410    3.9390   -6.3060 ha        1 LAN      0.122000
     76 H191       -5.7540    6.7030   -7.7330 hc        1 LAN      0.040033
     77 H192       -4.7330    5.2730   -8.1820 hc        1 LAN      0.040033
     78 H193       -3.9940    6.9280   -8.1010 hc        1 LAN      0.040033
     79 H181       -3.3000    7.4830   -5.0480 hc        1 LAN      0.040033
     80 H182       -4.9830    7.1830   -4.4540 hc        1 LAN      0.040033
     81 H183       -4.7130    8.1770   -5.9480 hc        1 LAN      0.040033
@<TRIPOS>BOND
     1    1    2 1   
     2    1   14 2   
     3    1   19 1   
     4    2    3 1   
     5    2   32 1   
     6    2   33 1   
     7    3    4 1   
     8    3   34 1   
     9    3   35 1   
    10    4    5 1   
    11    4   12 1   
    12    4   36 1   
    13    5    6 1   
    14    5    7 1   
    15    5    8 1   
    16    6   37 1   
    17    6   38 1   
    18    6   39 1   
    19    7   40 1   
    20    7   41 1   
    21    7   42 1   
    22    8    9 1   
    23    8   10 1   
    24    8   43 1   
    25    9   44 1   
    26   10   11 1   
    27   10   45 1   
    28   10   46 1   
    29   11   12 1   
    30   11   47 1   
    31   11   48 1   
    32   12   13 1   
    33   12   14 1   
    34   13   49 1   
    35   13   50 1   
    36   13   51 1   
    37   14   15 1   
    38   15   16 1   
    39   15   52 1   
    40   15   53 1   
    41   16   17 1   
    42   16   54 1   
    43   16   55 1   
    44   17   18 1   
    45   17   19 1   
    46   17   23 1   
    47   18   56 1   
    48   18   57 1   
    49   18   58 1   
    50   19   20 1   
    51   19   21 1   
    52   20   59 1   
    53   20   60 1   
    54   20   61 1   
    55   21   22 1   
    56   21   62 1   
    57   21   63 1   
    58   22   23 1   
    59   22   64 1   
    60   22   65 1   
    61   23   24 1   
    62   23   66 1   
    63   24   25 1   
    64   24   26 1   
    65   24   67 1   
    66   25   68 1   
    67   25   69 1   
    68   25   70 1   
    69   26   27 1   
    70   26   71 1   
    71   26   72 1   
    72   27   28 1   
    73   27   73 1   
    74   27   74 1   
    75   28   29 2   
    76   28   75 1   
    77   29   30 1   
    78   29   31 1   
    79   30   76 1   
    80   30   77 1   
    81   30   78 1   
    82   31   79 1   
    83   31   80 1   
    84   31   81 1   
@<TRIPOS>SUBSTRUCTURE
     1 LAN         1 TEMP              0 ****  ****    0 ROOT
