@<TRIPOS>MOLECULE
molecule
   71    70     1     0     0
SMALL
bcc


@<TRIPOS>ATOM
      1 O1           0.0000     0.0000     0.0000 os         1 LAP      -0.384900
      2 O2           2.0820    -0.0230    -0.9910 o          1 LAP      -0.566000
      3 C1           1.3660     0.0000     0.0000 c          1 LAP       0.644100
      4 C2           1.8560     0.0000     1.4310 c3         1 LAP      -0.140400
      5 C3           3.2430     0.6210     1.5930 c3         1 LAP      -0.068400
      6 C4           3.2900     2.0800     1.1250 c3         1 LAP      -0.084400
      7 C5           4.6960     2.6640     1.2730 c3         1 LAP      -0.079400
      8 C6           4.7540     4.1090     0.7750 c3         1 LAP      -0.074400
      9 C7           6.1690     4.6800     0.8930 c3         1 LAP      -0.080400
     10 C8           6.2680     6.1560     0.4940 c3         1 LAP      -0.075400
     11 C9           7.6420     6.8100     0.6740 c3         1 LAP      -0.076400
     12 C10          7.6590     8.2980     0.3150 c3         1 LAP      -0.075400
     13 C11          9.0510     8.9280     0.4100 c3         1 LAP      -0.081400
     14 C12          9.0830    10.3990     0.0280 c3         1 LAP      -0.088100
     15 C13         -0.6160    -0.0300    -1.2920 c3         1 LAP       0.137400
     16 C14         -2.1290    -0.0260    -1.1180 c3         1 LAP       0.140100
     17 C15         -2.5990     1.2050    -0.3530 c3         1 LAP       0.191400
     18 C16         -0.5000     4.7590    -1.6560 c3         1 LAP       0.193400
     19 C17         -0.0620     5.8630    -2.5980 c3         1 LAP       0.104800
     20 C18          1.6770     4.3450    -3.5180 c3         1 LAP       0.119433
     21 C19          1.8580     6.7990    -3.8670 c3         1 LAP       0.119433
     22 C20          2.2150     5.8360    -1.6040 c3         1 LAP       0.119433
     23 O3          -2.4910    -1.1940    -0.3760 oh         1 LAP      -0.596800
     24 O4          -2.2230     2.3850    -1.0570 os         1 LAP      -0.612200
     25 O5          -4.0960     4.0410    -0.2310 o          1 LAP      -0.772500
     26 O6          -1.8890     4.8730    -1.4020 os         1 LAP      -0.539200
     27 O7          -1.7660     3.8670     0.9500 o          1 LAP      -0.772500
     28 N8           1.3860     5.7150    -2.8890 n4         1 LAP      -0.629800
     29 P9          -2.6240     3.8150    -0.4220 p5         1 LAP       1.287800
     30 H21          1.1530     0.5560     2.0390 hc         1 LAP       0.083700
     31 H22          1.8900    -1.0230     1.7860 hc         1 LAP       0.083700
     32 H31          3.5250     0.5800     2.6380 hc         1 LAP       0.049200
     33 H32          3.9550     0.0450     1.0140 hc         1 LAP       0.049200
     34 H41          2.9940     2.1280     0.0840 hc         1 LAP       0.046200
     35 H42          2.5990     2.6650     1.7190 hc         1 LAP       0.046200
     36 H51          5.3920     2.0640     0.6990 hc         1 LAP       0.044700
     37 H52          4.9830     2.6380     2.3170 hc         1 LAP       0.044700
     38 H61          4.4440     4.1390    -0.2630 hc         1 LAP       0.027200
     39 H62          4.0760     4.7150     1.3650 hc         1 LAP       0.027200
     40 H71          6.8290     4.1050     0.2550 hc         1 LAP       0.044200
     41 H72          6.5000     4.5760     1.9190 hc         1 LAP       0.044200
     42 H81          5.9890     6.2420    -0.5490 hc         1 LAP       0.026200
     43 H82          5.5500     6.7120     1.0840 hc         1 LAP       0.026200
     44 H91          7.9450     6.6990     1.7080 hc         1 LAP       0.041700
     45 H92          8.3570     6.2940     0.0450 hc         1 LAP       0.041700
     46 H101         6.9930     8.8250     0.9880 hc         1 LAP       0.034200
     47 H102         7.2930     8.4150    -0.6980 hc         1 LAP       0.034200
     48 H111         9.4080     8.8270     1.4280 hc         1 LAP       0.039700
     49 H112         9.7210     8.3860    -0.2470 hc         1 LAP       0.039700
     50 H121         8.7450    10.5150    -0.9940 hc         1 LAP       0.034033
     51 H122         8.4310    10.9580     0.6890 hc         1 LAP       0.034033
     52 H123        10.0950    10.7740     0.1180 hc         1 LAP       0.034033
     53 H131        -0.3140    -0.9280    -1.8170 h1         1 LAP       0.042200
     54 H132        -0.3140     0.8410    -1.8590 h1         1 LAP       0.042200
     55 H14         -2.6060    -0.0530    -2.0910 h1         1 LAP       0.041700
     56 H151        -2.1450     1.2130     0.6300 h1         1 LAP       0.059700
     57 H152        -3.6770     1.1760    -0.2520 h1         1 LAP       0.059700
     58 H161         0.0450     4.8440    -0.7230 h1         1 LAP       0.043700
     59 H162        -0.2940     3.7960    -2.1070 h1         1 LAP       0.043700
     60 H171        -0.6260     5.7950    -3.5210 hx         1 LAP       0.101200
     61 H172        -0.2420     6.8260    -2.1350 hx         1 LAP       0.101200
     62 H181         1.6450     3.5810    -2.7500 hx         1 LAP       0.092589
     63 H182         2.6610     4.3580    -3.9730 hx         1 LAP       0.092589
     64 H183         0.9330     4.1290    -4.2740 hx         1 LAP       0.092589
     65 H191         1.6920     7.7760    -3.4310 hx         1 LAP       0.092589
     66 H192         1.3010     6.7170    -4.7930 hx         1 LAP       0.092589
     67 H193         2.9140     6.6680    -4.0690 hx         1 LAP       0.092589
     68 H201         2.1100     4.9300    -1.0190 hx         1 LAP       0.092589
     69 H202         1.8620     6.6810    -1.0250 hx         1 LAP       0.092589
     70 H203         3.2570     5.9830    -1.8590 hx         1 LAP       0.092589
     71 HO3         -3.1320    -1.6880    -0.8600 ho         1 LAP       0.398000
@<TRIPOS>BOND
     1     1     3 1
     2     1    15 1
     3     2     3 2
     4     3     4 1
     5     4     5 1
     6     4    30 1
     7     4    31 1
     8     5     6 1
     9     5    32 1
    10     5    33 1
    11     6     7 1
    12     6    34 1
    13     6    35 1
    14     7     8 1
    15     7    36 1
    16     7    37 1
    17     8     9 1
    18     8    38 1
    19     8    39 1
    20     9    10 1
    21     9    40 1
    22     9    41 1
    23    10    11 1
    24    10    42 1
    25    10    43 1
    26    11    12 1
    27    11    44 1
    28    11    45 1
    29    12    13 1
    30    12    46 1
    31    12    47 1
    32    13    14 1
    33    13    48 1
    34    13    49 1
    35    14    50 1
    36    14    51 1
    37    14    52 1
    38    15    16 1
    39    15    53 1
    40    15    54 1
    41    16    17 1
    42    16    23 1
    43    16    55 1
    44    17    24 1
    45    17    56 1
    46    17    57 1
    47    18    19 1
    48    18    26 1
    49    18    58 1
    50    18    59 1
    51    19    28 1
    52    19    60 1
    53    19    61 1
    54    20    28 1
    55    20    62 1
    56    20    63 1
    57    20    64 1
    58    21    28 1
    59    21    65 1
    60    21    66 1
    61    21    67 1
    62    22    28 1
    63    22    68 1
    64    22    69 1
    65    22    70 1
    66    23    71 1
    67    24    29 1
    68    25    29 1
    69    26    29 1
    70    27    29 1
@<TRIPOS>SUBSTRUCTURE
     1 LAP         1 TEMP              0 ****  ****    0 ROOT
