@<TRIPOS>MOLECULE
LAQ
   59    62     1     0     0
SMALL
bcc


@<TRIPOS>ATOM
      1 O2P          0.0000     0.0000     0.0000 o          1 LAQ      -0.621500
      2 P            1.6190     0.0000     0.0000 p5         1 LAQ       0.884800
      3 O1P          2.2460     0.0000     1.3650 o          1 LAQ      -0.621500
      4 O3P          1.9720    -1.2930    -0.9070 os         1 LAQ      -0.455500
      5 C10          3.2330    -1.6490    -1.2790 c          1 LAQ       0.757100
      6 C11          3.1740    -2.9030    -2.1170 c3         1 LAQ      -0.105400
      7 C12          4.5650    -3.3680    -2.5440 c3         1 LAQ      -0.021400
      8 C13          4.4890    -4.6160    -3.4250 c3         1 LAQ      -0.035400
      9 C14          5.8810    -5.1000    -3.8240 c3         1 LAQ      -0.014400
     10 C15          5.8110    -6.3610    -4.6730 c3         1 LAQ       0.072400
     11 S15          7.4790    -6.9170    -5.1400 ss         1 LAQ      -0.232100
     12 S17          7.0780    -8.9270    -5.1760 ss         1 LAQ      -0.236100
     13 C17          5.3280    -8.8120    -4.7270 c3         1 LAQ       0.081700
     14 C16          5.1640    -7.5270    -3.9220 c3         1 LAQ      -0.049400
     15 O10          4.2470    -1.0400    -0.9730 o          1 LAQ      -0.592000
     16 O5'          2.0030     1.2490    -0.9540 os         1 LAQ      -0.456200
     17 C5'          1.4420     1.3050    -2.2540 c3         1 LAQ       0.291400
     18 C4'          2.4110     2.0200    -3.1800 c3         1 LAQ       0.132100
     19 C3'          1.9120     2.1270    -4.6100 c3         1 LAQ       0.142100
     20 O3'          1.0010     3.1930    -4.7770 oh         1 LAQ      -0.547800
     21 C2'          3.2020     2.3080    -5.3880 c3         1 LAQ       0.124100
     22 O2'          3.6110     3.6740    -5.4010 oh         1 LAQ      -0.543800
     23 C1'          4.2060     1.4880    -4.5750 c3         1 LAQ       0.114800
     24 O4'          3.6400     1.2820    -3.2630 os         1 LAQ      -0.351600
     25 N9           4.5290     0.1930    -5.1760 na         1 LAQ       0.204000
     26 C8           3.6350    -0.7900    -5.5070 cc         1 LAQ       0.262700
     27 N7           4.2240    -1.8450    -6.0310 nd         1 LAQ      -0.514100
     28 C5           5.5600    -1.5320    -6.0390 ca         1 LAQ      -0.225200
     29 C6           6.6840    -2.2320    -6.4670 ca         1 LAQ       0.586200
     30 N6           6.5630    -3.5200    -7.0150 nv         1 LAQ      -0.529500
     31 N1           7.9040    -1.6530    -6.3480 nb         1 LAQ      -0.732000
     32 C2           7.9580    -0.4100    -5.8130 ca         1 LAQ       0.674900
     33 N3           6.9460     0.3640    -5.3650 nb         1 LAQ      -0.654000
     34 C4           5.7710    -0.2680    -5.5120 ca         1 LAQ       0.277800
     35 H111         2.5810    -2.7080    -3.0020 hc         1 LAQ       0.028200
     36 H112         2.7010    -3.6890    -1.5410 hc         1 LAQ       0.028200
     37 H121         5.1500    -3.5940    -1.6600 hc         1 LAQ       0.024200
     38 H122         5.0510    -2.5730    -3.0970 hc         1 LAQ       0.024200
     39 H131         3.9240    -4.3840    -4.3190 hc         1 LAQ       0.015200
     40 H132         3.9820    -5.4040    -2.8800 hc         1 LAQ       0.015200
     41 H141         6.4540    -5.3080    -2.9280 hc         1 LAQ       0.035700
     42 H142         6.3790    -4.3210    -4.3890 hc         1 LAQ       0.035700
     43 H15          5.2410    -6.1580    -5.5710 h1         1 LAQ       0.058700
     44 H171         4.7200    -8.7670    -5.6220 h1         1 LAQ       0.054700
     45 H172         5.0460    -9.6650    -4.1220 h1         1 LAQ       0.054700
     46 H161         5.6430    -7.6440    -2.9580 hc         1 LAQ       0.052200
     47 H162         4.1090    -7.3230    -3.7840 hc         1 LAQ       0.052200
     48 H5'1         1.2690     0.2990    -2.6180 h1         1 LAQ      -0.008300
     49 H5'2         0.5040     1.8450    -2.2220 h1         1 LAQ      -0.008300
     50 H4'          2.6150     3.0130    -2.7970 h1         1 LAQ       0.049700
     51 H3'          1.4440     1.1940    -4.8990 h1         1 LAQ       0.006700
     52 HO3'         0.3030     2.9220    -5.3500 ho         1 LAQ       0.380000
     53 H2'          3.1060     1.9140    -6.3930 h1         1 LAQ       0.005700
     54 HO2'         3.7100     3.9640    -6.2930 ho         1 LAQ       0.384000
     55 H1'          5.1180     2.0640    -4.4710 h2         1 LAQ       0.077700
     56 H8           2.5650    -0.7090    -5.3560 h5         1 LAQ       0.029800
     57 HN61         7.3250    -4.1650    -6.9490 hn         1 LAQ       0.279300
     58 HN62         5.7380    -3.7710    -7.5240 hn         1 LAQ       0.279300
     59 H2           8.9480     0.0220    -5.7330 h5         1 LAQ      -0.021900
@<TRIPOS>BOND
     1     1     2 1   
     2     2     3 1   
     3     2     4 1   
     4     2    16 1   
     5     4     5 1   
     6     5     6 1   
     7     5    15 2   
     8     6     7 1   
     9     6    35 1   
    10     6    36 1   
    11     7     8 1   
    12     7    37 1   
    13     7    38 1   
    14     8     9 1   
    15     8    39 1   
    16     8    40 1   
    17     9    10 1   
    18     9    41 1   
    19     9    42 1   
    20    10    11 1   
    21    10    14 1   
    22    10    43 1   
    23    11    12 1   
    24    12    13 1   
    25    13    14 1   
    26    13    44 1   
    27    13    45 1   
    28    14    46 1   
    29    14    47 1   
    30    16    17 1   
    31    17    18 1   
    32    17    48 1   
    33    17    49 1   
    34    18    19 1   
    35    18    24 1   
    36    18    50 1   
    37    19    20 1   
    38    19    21 1   
    39    19    51 1   
    40    20    52 1   
    41    21    22 1   
    42    21    23 1   
    43    21    53 1   
    44    22    54 1   
    45    23    24 1   
    46    23    25 1   
    47    23    55 1   
    48    25    26 1   
    49    25    34 1   
    50    26    27 2   
    51    26    56 1   
    52    27    28 1   
    53    28    29 ar  
    54    28    34 ar  
    55    29    30 1   
    56    29    31 ar  
    57    30    57 1   
    58    30    58 1   
    59    31    32 ar  
    60    32    33 ar  
    61    32    59 1   
    62    33    34 ar  
@<TRIPOS>SUBSTRUCTURE
     1 LAQ         1 TEMP              0 ****  ****    0 ROOT
