@<TRIPOS>MOLECULE
molecule
   60    62     1     0     0
SMALL
bcc


@<TRIPOS>ATOM
      1 S1           0.0000     0.0000     0.0000 ss         1 LAR      -0.269700
      2 N1           1.0160     0.0010     2.3320 ns         1 LAR      -0.581900
      3 O1           6.4890    -0.9410     4.7140 o          1 LAR      -0.644000
      4 O2           4.8640     0.5280     5.0370 os         1 LAR      -0.397900
      5 O3           4.1670     1.2970     0.9690 os         1 LAR      -0.453600
      6 O4           2.2050     2.3940     1.4860 oh         1 LAR      -0.578800
      7 C1           5.8640    -0.2560     5.4960 c          1 LAR       0.690300
      8 C2           6.1880    -0.2700     6.9260 ce         1 LAR      -0.523200
      9 C3           7.3090    -0.8060     7.3940 c2         1 LAR       0.171600
     10 C4           8.3350    -1.4150     6.4790 c3         1 LAR      -0.131200
     11 C5           7.9650    -2.8550     6.1240 c3         1 LAR      -0.003200
     12 C6           8.6680    -3.2460     4.8470 c2         1 LAR      -0.230200
     13 C7           8.0280    -3.1520     3.6820 ce         1 LAR      -0.013000
     14 C8           8.7140    -3.5240     2.4420 ce         1 LAR      -0.156000
     15 C9           8.1930    -3.4010     1.2350 c2         1 LAR      -0.396200
     16 C10          6.8220    -2.8580     0.9530 c3         1 LAR      -0.091500
     17 C11          6.6810    -1.4470     1.5140 c3         1 LAR      -0.122400
     18 C12          5.3760    -0.8140     1.0220 c3         1 LAR      -0.115400
     19 C13          5.3920     0.6890     1.3060 c3         1 LAR       0.177100
     20 C14          5.7330     0.9300     2.7810 c3         1 LAR      -0.160400
     21 C15          4.5520     0.4360     3.6250 c3         1 LAR       0.153100
     22 C16          3.3350     1.2980     3.2910 c3         1 LAR      -0.124400
     23 C17          3.0270     1.2470     1.7970 c3         1 LAR       0.355600
     24 C18          2.1900     0.0000     1.4890 c3         1 LAR       0.094700
     25 C19          1.8210     0.0000     0.0000 c3         1 LAR       0.013700
     26 C20         -0.1840     0.0010     1.7570 c          1 LAR       0.755100
     27 C21          7.5620    -0.8080     8.8850 c3         1 LAR      -0.081900
     28 C22          5.7510    -3.7840     1.5270 c3         1 LAR      -0.125100
     29 HN1          1.1040     0.0010     3.3290 hn         1 LAR       0.340500
     30 HO4          2.7580     3.1340     1.2940 ho         1 LAR       0.421000
     31 H21          6.6830     0.3650     6.2010 ha         1 LAR       0.229000
     32 H41          9.3000    -1.4070     6.9710 hc         1 LAR       0.066200
     33 H42          8.3940    -0.8290     5.5700 hc         1 LAR       0.066200
     34 H51          6.8930    -2.9310     5.9860 hc         1 LAR       0.055700
     35 H52          8.2750    -3.5160     6.9250 hc         1 LAR       0.055700
     36 H61          9.6920    -3.5960     4.8760 ha         1 LAR       0.148000
     37 H71          7.0050    -2.7960     3.6520 ha         1 LAR       0.149000
     38 H81          8.4190    -2.5140     2.6980 ha         1 LAR       0.107000
     39 H91          7.2710    -3.8670     1.5620 ha         1 LAR       0.309000
     40 H101         6.6890    -2.8120    -0.1210 hc         1 LAR       0.087700
     41 H111         6.6740    -1.4900     2.5970 hc         1 LAR       0.064200
     42 H112         7.5190    -0.8440     1.1840 hc         1 LAR       0.064200
     43 H121         5.2760    -0.9780    -0.0440 hc         1 LAR       0.050700
     44 H122         4.5390    -1.2690     1.5370 hc         1 LAR       0.050700
     45 H131         6.1690     1.1430     0.7040 h1         1 LAR       0.087700
     46 H141         6.6270     0.3780     3.0440 hc         1 LAR       0.075200
     47 H142         5.8860     1.9890     2.9520 hc         1 LAR       0.075200
     48 H151         4.3390    -0.5950     3.3690 h1         1 LAR       0.058700
     49 H161         2.4780     0.9300     3.8420 hc         1 LAR       0.076700
     50 H162         3.5360     2.3230     3.5770 hc         1 LAR       0.076700
     51 H181         2.7760    -0.8850     1.7050 h1         1 LAR       0.065700
     52 H191         2.1990    -0.8920    -0.4840 h1         1 LAR       0.091700
     53 H192         2.2000     0.8920    -0.4840 h1         1 LAR       0.091700
     54 H211         6.7900    -0.2330     9.3830 hc         1 LAR       0.074033
     55 H212         7.5470    -1.8260     9.2530 hc         1 LAR       0.074033
     56 H213         8.5290    -0.3650     9.0870 hc         1 LAR       0.074033
     57 H221         5.6020    -3.5570     2.5760 hc         1 LAR       0.063033
     58 H222         4.8210    -3.6370     0.9910 hc         1 LAR       0.063033
     59 H223         6.0690    -4.8140     1.4220 hc         1 LAR       0.063033
     60 O5          -1.2460     0.0020     2.3510 o          1 LAR      -0.586500
@<TRIPOS>BOND
     1     1    25 1
     2     1    26 1
     3     2    24 1
     4     2    26 1
     5     2    29 1
     6     3     7 2
     7     4     7 1
     8     4    21 1
     9     5    19 1
    10     5    23 1
    11     6    23 1
    12     6    30 1
    13    60    26 2
    14     7     8 1
    15     8     9 2
    16     8    31 1
    17     9    10 1
    18     9    27 1
    19    10    11 1
    20    10    32 1
    21    10    33 1
    22    11    12 1
    23    11    34 1
    24    11    35 1
    25    12    13 2
    26    12    36 1
    27    13    14 1
    28    13    37 1
    29    14    15 2
    30    14    38 1
    31    15    16 1
    32    15    39 1
    33    16    17 1
    34    16    28 1
    35    16    40 1
    36    17    18 1
    37    17    41 1
    38    17    42 1
    39    18    19 1
    40    18    43 1
    41    18    44 1
    42    19    20 1
    43    19    45 1
    44    20    21 1
    45    20    46 1
    46    20    47 1
    47    21    22 1
    48    21    48 1
    49    22    23 1
    50    22    49 1
    51    22    50 1
    52    23    24 1
    53    24    25 1
    54    24    51 1
    55    25    52 1
    56    25    53 1
    57    27    54 1
    58    27    55 1
    59    27    56 1
    60    28    57 1
    61    28    58 1
    62    28    59 1
@<TRIPOS>SUBSTRUCTURE
     1 LAR         1 TEMP              0 ****  ****    0 ROOT
