@<TRIPOS>MOLECULE
LAR
   60    64     1     0     0
SMALL
bcc


@<TRIPOS>ATOM
      1 S1           0.0000     0.0000     0.0000 ss         1 LAR       0.022000
      2 N1           1.0160     0.0010     2.3320 ns         1 LAR      -0.004000
      3 O1           6.4890    -0.9410     4.7140 o          1 LAR      -0.406000
      4 O2           4.8640     0.5280     5.0370 os         1 LAR      -0.240000
      5 O3           4.1670     1.2970     0.9690 os         1 LAR      -0.290000
      6 O4           2.2050     2.3940     1.4860 oh         1 LAR      -0.305000
      7 C1           5.8640    -0.2560     5.4960 c2         1 LAR       0.418000
      8 C2           6.1880    -0.2700     6.9260 c2         1 LAR      -0.228000
      9 C3           7.3090    -0.8060     7.3940 c2         1 LAR      -0.011000
     10 C4           8.3350    -1.4150     6.4790 c3         1 LAR      -0.127000
     11 C5           7.9650    -2.8550     6.1240 DU         1 LAR       0.049000
     12 C6           8.6680    -3.2460     4.8470 c2         1 LAR      -0.156000
     13 C7           8.0280    -3.1520     3.6820 c2         1 LAR       0.012000
     14 C8           8.7140    -3.5240     2.4420 c3         1 LAR      -0.050000
     15 C9           8.1930    -3.4010     1.2350 c2         1 LAR      -0.272000
     16 C10          6.8220    -2.8580     0.9530 c3         1 LAR      -0.017000
     17 C11          6.6810    -1.4470     1.5140 c3         1 LAR      -0.135000
     18 C12          5.3760    -0.8140     1.0220 c3         1 LAR      -0.156000
     19 C13          5.3920     0.6890     1.3060 c3         1 LAR       0.107000
     20 C14          5.7330     0.9300     2.7810 c3         1 LAR      -0.214000
     21 C15          4.5520     0.4360     3.6250 c3         1 LAR       0.084000
     22 C16          3.3350     1.2980     3.2910 c3         1 LAR      -0.177000
     23 C17          3.0270     1.2470     1.7970 c3         1 LAR       0.240000
     24 C18          2.1900     0.0000     1.4890 c3         1 LAR      -0.100000
     25 C19          1.8210     0.0000     0.0000 c3         1 LAR      -0.171000
     26 C20         -0.1840     0.0010     1.7570 c2         1 LAR       0.172000
     27 C21          7.5620    -0.8080     8.8850 c3         1 LAR      -0.082000
     28 C22          5.7510    -3.7840     1.5270 c3         1 LAR      -0.122000
     29 HN1          1.1040     0.0010     3.3290 hn         1 LAR       0.113000
     30 HO4          2.7580     3.1330     1.2890 ho         1 LAR       0.210000
     31 H21          5.4770     0.1570     7.6230 ha         1 LAR       0.123000
     32 H41          8.3940    -0.8290     5.5700 hc         1 LAR       0.084500
     33 H42          9.3010    -1.4060     6.9710 hc         1 LAR       0.084500
     34 H51          8.2750    -3.5160     6.9250 ha         1 LAR       0.058500
     35 H52          6.8930    -2.9310     5.9860 ha         1 LAR       0.058500
     36 H61          7.9500    -3.8720     5.3640 DU         1 LAR       0.017000
     37 H71          8.1700    -4.1720     3.3470 DU         1 LAR       0.050000
     38 H81          9.7150    -3.9290     2.5280 hc         1 LAR       0.124000
     39 H91          8.7900    -3.7080     0.3850 ha         1 LAR       0.106000
     40 H101         6.6890    -2.8120    -0.1210 hc         1 LAR       0.060000
     41 H111         7.5190    -0.8440     1.1840 hc         1 LAR       0.085000
     42 H112         6.6740    -1.4900     2.5970 hc         1 LAR       0.085000
     43 H121         5.2760    -0.9780    -0.0440 hc         1 LAR       0.064500
     44 H122         4.5390    -1.2690     1.5370 hc         1 LAR       0.064500
     45 H131         6.1690     1.1430     0.7040 h1         1 LAR       0.083000
     46 H141         6.6270     0.3780     3.0440 hc         1 LAR       0.098500
     47 H142         5.8860     1.9890     2.9520 hc         1 LAR       0.098500
     48 H151         4.3390    -0.5950     3.3690 h1         1 LAR       0.072000
     49 H161         3.5360     2.3230     3.5770 hc         1 LAR       0.084000
     50 H162         2.4780     0.9300     3.8420 hc         1 LAR       0.084000
     51 H181         2.7760    -0.8850     1.7050 h1         1 LAR       0.091000
     52 H191         2.1990    -0.8920    -0.4840 h1         1 LAR       0.105500
     53 H192         2.1990     0.8920    -0.4840 h1         1 LAR       0.105500
     54 H211         7.5200     0.2080     9.2590 hc         1 LAR       0.055333
     55 H212         6.8060    -1.4060     9.3790 hc         1 LAR       0.055333
     56 H213         8.5410    -1.2260     9.0850 hc         1 LAR       0.055333
     57 H221         4.8630    -3.7380     0.9070 hc         1 LAR       0.044000
     58 H222         6.1250    -4.8000     1.5480 hc         1 LAR       0.044000
     59 H223         5.5040    -3.4700     2.5340 hc         1 LAR       0.044000
     60 O5          -1.2460     0.0020     2.3510 o          1 LAR      -0.346000
@<TRIPOS>BOND
     1     1    25 1   
     2     1    26 1   
     3     2    24 1   
     4     2    26 1   
     5     2    29 1   
     6     3     7 1   
     7     4     7 1   
     8     4    21 1   
     9     5    19 1   
    10     5    23 1   
    11     6    23 1   
    12     6    30 1   
    13     7     8 1   
    14     8     9 1   
    15     8    31 1   
    16     9    10 1   
    17     9    27 1   
    18    10    11 1   
    19    10    32 1   
    20    10    33 1   
    21    11    12 1   
    22    11    34 1   
    23    11    35 1   
    24    11    36 1   
    25    12    13 1   
    26    12    36 1   
    27    13    14 1   
    28    13    37 1   
    29    14    15 1   
    30    14    37 1   
    31    14    38 1   
    32    15    16 1   
    33    15    39 1   
    34    16    17 1   
    35    16    28 1   
    36    16    40 1   
    37    17    18 1   
    38    17    41 1   
    39    17    42 1   
    40    18    19 1   
    41    18    43 1   
    42    18    44 1   
    43    19    20 1   
    44    19    45 1   
    45    20    21 1   
    46    20    46 1   
    47    20    47 1   
    48    21    22 1   
    49    21    48 1   
    50    22    23 1   
    51    22    49 1   
    52    22    50 1   
    53    23    24 1   
    54    24    25 1   
    55    24    51 1   
    56    25    52 1   
    57    25    53 1   
    58    26    60 1   
    59    27    54 1   
    60    27    55 1   
    61    27    56 1   
    62    28    57 1   
    63    28    58 1   
    64    28    59 1   
@<TRIPOS>SUBSTRUCTURE
     1 LAR         1 TEMP              0 ****  ****    0 ROOT
