@<TRIPOS>MOLECULE
molecule
   48    48     1     0     0
SMALL
bcc


@<TRIPOS>ATOM
      1 C18          1.5070     0.0000     0.0000 c          1 LAS       0.560700
      2 O19          2.1140     0.5560     0.8920 o          1 LAS      -0.553100
      3 C9           0.0000     0.0000     0.0000 c3         1 LAS       0.015400
      4 C10         -0.5300     0.0000     1.4350 c3         1 LAS       0.148100
      5 C11         -0.2250    -1.3480     2.0920 c3         1 LAS      -0.090700
      6 C16          1.2880    -1.5110     2.2430 c3         1 LAS      -0.096600
      7 C12         -0.8840    -1.4040     3.4710 c3         1 LAS      -0.096600
      8 O17         -1.9430     0.2150     1.4220 oh         1 LAS      -0.606800
      9 N8          -0.5070    -1.1690    -0.7290 ns         1 LAS      -0.561900
     10 C6          -1.5220    -0.8330    -1.5450 c          1 LAS       0.726500
     11 O7          -2.1270    -1.6080    -2.2550 o          1 LAS      -0.639500
     12 C5          -1.7980     0.6510    -1.4490 c3         1 LAS      -0.168700
     13 C20         -1.9800     1.2530    -2.8430 c3         1 LAS      -0.068100
     14 C3          -0.5330     1.2300    -0.7680 c3         1 LAS       0.157100
     15 O2           0.4120     1.6750    -1.7420 oh         1 LAS      -0.574800
     16 H10         -0.0500     0.7920     1.9970 h1         1 LAS       0.060700
     17 H11         -0.6140    -2.1480     1.4730 hc         1 LAS       0.062700
     18 H16          1.7270    -0.5620     2.5260 hc         1 LAS       0.040867
     19 H16A         1.4980    -2.2480     3.0090 hc         1 LAS       0.040867
     20 H16B         1.7120    -1.8390     1.3010 hc         1 LAS       0.040867
     21 H12         -0.7260    -0.4630     3.9850 hc         1 LAS       0.040867
     22 H12A        -1.9470    -1.5780     3.3560 hc         1 LAS       0.040867
     23 H12B        -0.4470    -2.2090     4.0480 hc         1 LAS       0.040867
     24 HO17        -2.1630     0.8960     2.0350 ho         1 LAS       0.398000
     25 HN8         -0.1440    -2.0970    -0.6310 hn         1 LAS       0.346500
     26 H5          -2.6720     0.8320    -0.8350 hc         1 LAS       0.088700
     27 H20         -2.9460     0.9640    -3.2380 hc         1 LAS       0.042700
     28 H20A        -1.1980     0.8890    -3.4990 hc         1 LAS       0.042700
     29 H20B        -1.9240     2.3330    -2.7800 hc         1 LAS       0.042700
     30 H3          -0.7970     2.0260    -0.0820 h1         1 LAS       0.048700
     31 HO2          0.5300     2.6070    -1.6630 ho         1 LAS       0.406000
     32 S1           2.3630    -0.7810    -1.2600 ss         1 LAS      -0.236700
     33 C111         4.0640    -0.4480    -0.7370 c3         1 LAS       0.022700
     34 C121         5.0380    -1.0690    -1.7410 c3         1 LAS       0.017700
     35 C13          6.4530    -0.7920    -1.3060 c          1 LAS       0.890600
     36 O5           7.2040    -1.7090    -1.0700 o          1 LAS      -0.826300
     37 O6           6.8810     0.4740    -1.1800 o          1 LAS      -0.826300
     38 N2           4.8190    -2.5170    -1.8010 ns         1 LAS      -0.555900
     39 C14          5.1580    -3.2030    -2.9100 c          1 LAS       0.666100
     40 C15          4.9340    -4.6920    -2.9720 c3         1 LAS      -0.169100
     41 O71          5.6430    -2.6230    -3.8590 o          1 LAS      -0.619100
     42 H181         4.2260     0.6220    -0.6920 h1         1 LAS       0.089200
     43 H19          4.2320    -0.8800     0.2430 h1         1 LAS       0.089200
     44 H201         4.8700    -0.6370    -2.7200 h1         1 LAS       0.086700
     45 H22          4.3820    -2.9890    -1.0340 hn         1 LAS       0.297500
     46 H23          4.0060    -4.8970    -3.4910 hc         1 LAS       0.045700
     47 H24          5.7550    -5.1590    -3.5030 hc         1 LAS       0.045700
     48 H25          4.8820    -5.0920    -1.9660 hc         1 LAS       0.045700
@<TRIPOS>BOND
     1     1     2 2
     2     1     3 1
     3     3     4 1
     4     3     9 1
     5     3    14 1
     6     4     5 1
     7     4     8 1
     8     4    16 1
     9     5     6 1
    10     5     7 1
    11     5    17 1
    12     6    18 1
    13     6    19 1
    14     6    20 1
    15     7    21 1
    16     7    22 1
    17     7    23 1
    18     8    24 1
    19     9    10 1
    20     9    25 1
    21    10    11 2
    22    10    12 1
    23    12    13 1
    24    12    14 1
    25    12    26 1
    26    13    27 1
    27    13    28 1
    28    13    29 1
    29    14    15 1
    30    14    30 1
    31    15    31 1
    32     1    32 1
    33    32    33 1
    34    33    34 1
    35    34    35 1
    36    35    36 1
    37    35    37 1
    38    34    38 1
    39    38    39 1
    40    39    40 1
    41    39    41 2
    42    33    42 1
    43    33    43 1
    44    34    44 1
    45    38    45 1
    46    40    46 1
    47    40    47 1
    48    40    48 1
@<TRIPOS>SUBSTRUCTURE
     1 LAS         1 TEMP              0 ****  ****    0 ROOT
