@<TRIPOS>MOLECULE
molecule
   37    36     1     0     0
SMALL
bcc


@<TRIPOS>ATOM
      1 O1           0.0000     0.0000     0.0000 o          1 LAU      -0.858300
      2 O2           1.8790    -0.0000    -1.1630 o          1 LAU      -0.858300
      3 C1           1.2090     0.0000     0.0000 c          1 LAU       0.890600
      4 C2           1.9610     0.0000     1.3050 c3         1 LAU      -0.182400
      5 C3           0.9680     0.0000     2.4680 c3         1 LAU      -0.063400
      6 C4           1.7320    -0.0000     3.7930 c3         1 LAU      -0.088400
      7 C5           0.7380     0.0000     4.9560 c3         1 LAU      -0.081400
      8 C6           1.5010    -0.0000     6.2800 c3         1 LAU      -0.083400
      9 C7           0.5080    -0.0000     7.4430 c3         1 LAU      -0.082400
     10 C8           1.2720    -0.0000     8.7680 c3         1 LAU      -0.082400
     11 C9           0.2780     0.0000     9.9300 c3         1 LAU      -0.082400
     12 C10          1.0420    -0.0000    11.2550 c3         1 LAU      -0.082400
     13 C11          0.0490     0.0000    12.4190 c3         1 LAU      -0.084400
     14 C12          0.8130    -0.0000    13.7440 c3         1 LAU      -0.092100
     15 H21          2.5840    -0.8840     1.3630 hc         1 LAU       0.026700
     16 H22          2.5840     0.8840     1.3630 hc         1 LAU       0.026700
     17 H31          0.3450     0.8840     2.4100 hc         1 LAU       0.044700
     18 H32          0.3450    -0.8840     2.4100 hc         1 LAU       0.044700
     19 H41          2.3540     0.8840     3.8500 hc         1 LAU       0.028700
     20 H42          2.3540    -0.8840     3.8500 hc         1 LAU       0.028700
     21 H51          0.1150     0.8840     4.8980 hc         1 LAU       0.038700
     22 H52          0.1150    -0.8840     4.8980 hc         1 LAU       0.038700
     23 H61          2.1240     0.8840     6.3370 hc         1 LAU       0.035700
     24 H62          2.1240    -0.8840     6.3370 hc         1 LAU       0.035700
     25 H71         -0.1140     0.8840     7.3860 hc         1 LAU       0.039700
     26 H72         -0.1140    -0.8840     7.3860 hc         1 LAU       0.039700
     27 H81          1.8950     0.8840     8.8260 hc         1 LAU       0.038700
     28 H82          1.8950    -0.8840     8.8260 hc         1 LAU       0.038700
     29 H91         -0.3440    -0.8840     9.8730 hc         1 LAU       0.039700
     30 H92         -0.3440     0.8840     9.8730 hc         1 LAU       0.039700
     31 H101         1.6650    -0.8840    11.3130 hc         1 LAU       0.039700
     32 H102         1.6650     0.8840    11.3130 hc         1 LAU       0.039700
     33 H111        -0.5740     0.8840    12.3610 hc         1 LAU       0.038700
     34 H112        -0.5740    -0.8840    12.3610 hc         1 LAU       0.038700
     35 H121         1.4360     0.8850    13.8010 hc         1 LAU       0.030033
     36 H122         0.1090    -0.0000    14.5670 hc         1 LAU       0.030033
     37 H123         1.4360    -0.8850    13.8010 hc         1 LAU       0.030033
@<TRIPOS>BOND
     1     1     3 1
     2     2     3 1
     3     3     4 1
     4     4     5 1
     5     4    15 1
     6     4    16 1
     7     5     6 1
     8     5    17 1
     9     5    18 1
    10     6     7 1
    11     6    19 1
    12     6    20 1
    13     7     8 1
    14     7    21 1
    15     7    22 1
    16     8     9 1
    17     8    23 1
    18     8    24 1
    19     9    10 1
    20     9    25 1
    21     9    26 1
    22    10    11 1
    23    10    27 1
    24    10    28 1
    25    11    12 1
    26    11    29 1
    27    11    30 1
    28    12    13 1
    29    12    31 1
    30    12    32 1
    31    13    14 1
    32    13    33 1
    33    13    34 1
    34    14    35 1
    35    14    36 1
    36    14    37 1
@<TRIPOS>SUBSTRUCTURE
     1 LAU         1 TEMP              0 ****  ****    0 ROOT
