@<TRIPOS>MOLECULE
LAU
   37    36     1     0     0
SMALL
bcc


@<TRIPOS>ATOM
      1 O1          0.2390   -0.9530   -0.1300 o         1 LAU     -0.853800
      2 O2          1.5580    0.6250   -0.9960 o         1 LAU     -0.853800
      3 C1          1.1850   -0.1170   -0.0420 c         1 LAU      0.907600
      4 C2          1.9460   -0.0060    1.2920 c3        1 LAU     -0.193400
      5 C3          0.9960    0.0550    2.4620 c3        1 LAU     -0.065400
      6 C4          1.7260   -0.0210    3.7870 c3        1 LAU     -0.078400
      7 C5          0.7660    0.0590    4.9550 c3        1 LAU     -0.078400
      8 C6          1.4950   -0.0240    6.2790 c3        1 LAU     -0.078400
      9 C7          0.5330    0.0560    7.4460 c3        1 LAU     -0.079400
     10 C8          1.2620   -0.0260    8.7700 c3        1 LAU     -0.078400
     11 C9          0.2990    0.0530    9.9350 c3        1 LAU     -0.079400
     12 C10         1.0280   -0.0280   11.2590 c3        1 LAU     -0.079400
     13 C11         0.0660    0.0510   12.4250 c3        1 LAU     -0.080400
     14 C12         0.7870   -0.0290   13.7450 c3        1 LAU     -0.091100
     15 H21         2.6080   -0.9030    1.3830 hc        1 LAU      0.018700
     16 H22         2.5980    0.9020    1.2710 hc        1 LAU      0.018700
     17 H31         0.2640   -0.7930    2.3760 hc        1 LAU      0.043700
     18 H32         0.4050    1.0070    2.4150 hc        1 LAU      0.043700
     19 H41         2.3040   -0.9810    3.8420 hc        1 LAU      0.025700
     20 H42         2.4700    0.8160    3.8550 hc        1 LAU      0.025700
     21 H51         0.1910    1.0210    4.9020 hc        1 LAU      0.036700
     22 H52         0.0200   -0.7750    4.8820 hc        1 LAU      0.036700
     23 H61         2.0690   -0.9860    6.3320 hc        1 LAU      0.034200
     24 H62         2.2420    0.8100    6.3500 hc        1 LAU      0.034200
     25 H71        -0.0420    1.0180    7.3920 hc        1 LAU      0.037200
     26 H72        -0.2130   -0.7790    7.3740 hc        1 LAU      0.037200
     27 H81         1.8370   -0.9880    8.8220 hc        1 LAU      0.036700
     28 H82         2.0080    0.8080    8.8400 hc        1 LAU      0.036700
     29 H91        -0.4470   -0.7820    9.8640 hc        1 LAU      0.038200
     30 H92        -0.2770    1.0140    9.8810 hc        1 LAU      0.038200
     31 H101        1.7730    0.8080   11.3300 hc        1 LAU      0.037700
     32 H102        1.6040   -0.9890   11.3120 hc        1 LAU      0.037700
     33 H111       -0.5110    1.0120   12.3680 hc        1 LAU      0.037700
     34 H112       -0.6790   -0.7850   12.3510 hc        1 LAU      0.037700
     35 H121        1.3480   -0.9910   13.8300 hc        1 LAU      0.029367
     36 H122        0.0600    0.0310   14.5910 hc        1 LAU      0.029367
     37 H123        1.5160    0.8100   13.8480 hc        1 LAU      0.029367
@<TRIPOS>BOND
     1    1    3 1   
     2    2    3 1   
     3    3    4 1   
     4    4    5 1   
     5    4   15 1   
     6    4   16 1   
     7    5    6 1   
     8    5   17 1   
     9    5   18 1   
    10    6    7 1   
    11    6   19 1   
    12    6   20 1   
    13    7    8 1   
    14    7   21 1   
    15    7   22 1   
    16    8    9 1   
    17    8   23 1   
    18    8   24 1   
    19    9   10 1   
    20    9   25 1   
    21    9   26 1   
    22   10   11 1   
    23   10   27 1   
    24   10   28 1   
    25   11   12 1   
    26   11   29 1   
    27   11   30 1   
    28   12   13 1   
    29   12   31 1   
    30   12   32 1   
    31   13   14 1   
    32   13   33 1   
    33   13   34 1   
    34   14   35 1   
    35   14   36 1   
    36   14   37 1   
@<TRIPOS>SUBSTRUCTURE
     1 LAU         1 TEMP              0 ****  ****    0 ROOT
