@<TRIPOS>MOLECULE
molecule
   55    54     1     0     0
SMALL
bcc


@<TRIPOS>ATOM
      1 C1           0.0000     0.0000     0.0000 c          1 LAX       0.891600
      2 O1           1.2080     0.0000     0.0000 o          1 LAX      -0.856800
      3 O2          -0.6710     0.0000     1.1620 o          1 LAX      -0.856800
      4 C2          -0.7510     0.0000    -1.3060 c3         1 LAX      -0.183400
      5 C3           0.2420     0.0010    -2.4690 c3         1 LAX      -0.063400
      6 C4          -0.5220     0.0020    -3.7930 c3         1 LAX      -0.087400
      7 C5           0.4730     0.0030    -4.9560 c3         1 LAX      -0.090400
      8 C6          -0.2920     0.0030    -6.2810 c3         1 LAX      -0.075400
      9 C7           0.7020     0.0030    -7.4430 c3         1 LAX      -0.088200
     10 C8          -0.0500     0.0040    -8.7480 c2         1 LAX      -0.184200
     11 C9           0.2120     0.9100    -9.6560 c2         1 LAX      -0.275200
     12 C10          1.3480     1.8800    -9.4450 c3         1 LAX       0.017000
     13 C11          2.2630     1.8470   -10.6410 c2         1 LAX      -0.227200
     14 C12          2.5840     2.9610   -11.2510 c2         1 LAX      -0.190200
     15 C13          2.1800     4.2880   -10.6600 c3         1 LAX       0.280000
     16 C14          3.3910     5.1740   -10.5370 c2         1 LAX      -0.188200
     17 C15          3.3710     6.3840   -11.0390 c2         1 LAX      -0.237200
     18 C16          2.0860     6.9510   -11.5850 c3         1 LAX       0.014800
     19 C17          1.8120     8.3080   -10.9360 c3         1 LAX      -0.091400
     20 C18          0.5090     8.8850   -11.4900 c3         1 LAX      -0.090400
     21 C19          0.2340    10.2430   -10.8410 c3         1 LAX      -0.082400
     22 C20         -1.0700    10.8190   -11.3960 c3         1 LAX      -0.092100
     23 H21         -1.3740    -0.8840    -1.3630 hc         1 LAX       0.027200
     24 H22         -1.3750     0.8850    -1.3630 hc         1 LAX       0.027200
     25 H31          0.8640    -0.8840    -2.4120 hc         1 LAX       0.045200
     26 H32          0.8650     0.8850    -2.4110 hc         1 LAX       0.045200
     27 H41         -1.1440     0.8870    -3.8500 hc         1 LAX       0.031200
     28 H42         -1.1450    -0.8820    -3.8510 hc         1 LAX       0.031200
     29 H51          1.0950    -0.8820    -4.8980 hc         1 LAX       0.036700
     30 H52          1.0960     0.8870    -4.8980 hc         1 LAX       0.036700
     31 H61         -0.9150    -0.8810    -6.3390 hc         1 LAX       0.050700
     32 H62         -0.9140     0.8880    -6.3380 hc         1 LAX       0.050700
     33 H71          1.3260     0.8880    -7.3850 hc         1 LAX       0.047200
     34 H72          1.3250    -0.8810    -7.3860 hc         1 LAX       0.047200
     35 H8           0.9310    -0.4440    -8.6510 ha         1 LAX       0.170000
     36 H9           1.2720     0.6900    -9.7070 ha         1 LAX       0.183000
     37 H101         1.9030     1.5990    -8.5580 hc         1 LAX       0.068200
     38 H102         0.9500     2.8800    -9.3220 hc         1 LAX       0.068200
     39 H11          2.6480     2.0500    -9.6490 ha         1 LAX       0.088000
     40 H12          1.6000     3.3750   -11.4310 ha         1 LAX       0.016000
     41 H131         1.4490     4.7620   -11.3040 hc         1 LAX       0.057700
     42 H132         1.7470     4.1300    -9.6790 hc         1 LAX       0.057700
     43 H14          2.5750     5.2440    -9.8270 ha         1 LAX       0.001000
     44 H15          3.0540     6.1700   -12.0520 ha         1 LAX       0.115000
     45 H161         1.2700     6.2740   -11.3650 hc         1 LAX       0.042700
     46 H162         2.1740     7.0750   -12.6580 hc         1 LAX       0.042700
     47 H171         2.6290     8.9850   -11.1560 hc         1 LAX       0.055700
     48 H172         1.7240     8.1840    -9.8640 hc         1 LAX       0.055700
     49 H181         0.5970     9.0100   -12.5630 hc         1 LAX       0.039200
     50 H182        -0.3080     8.2080   -11.2710 hc         1 LAX       0.039200
     51 H191         1.0510    10.9210   -11.0600 hc         1 LAX       0.042700
     52 H192         0.1470    10.1190    -9.7680 hc         1 LAX       0.042700
     53 H201        -0.9820    10.9430   -12.4690 hc         1 LAX       0.032367
     54 H202        -1.8860    10.1420   -11.1760 hc         1 LAX       0.032367
     55 H203        -1.2650    11.7810   -10.9360 hc         1 LAX       0.032367
@<TRIPOS>BOND
     1     1     2 1
     2     1     3 1
     3     1     4 1
     4     4     5 1
     5     4    23 1
     6     4    24 1
     7     5     6 1
     8     5    25 1
     9     5    26 1
    10     6     7 1
    11     6    27 1
    12     6    28 1
    13     7     8 1
    14     7    29 1
    15     7    30 1
    16     8     9 1
    17     8    31 1
    18     8    32 1
    19     9    10 1
    20     9    33 1
    21     9    34 1
    22    10    11 2
    23    10    35 1
    24    11    12 1
    25    11    36 1
    26    12    13 1
    27    12    37 1
    28    12    38 1
    29    13    14 2
    30    13    39 1
    31    14    15 1
    32    14    40 1
    33    15    16 1
    34    15    41 1
    35    15    42 1
    36    16    17 2
    37    16    43 1
    38    17    18 1
    39    17    44 1
    40    18    19 1
    41    18    45 1
    42    18    46 1
    43    19    20 1
    44    19    47 1
    45    19    48 1
    46    20    21 1
    47    20    49 1
    48    20    50 1
    49    21    22 1
    50    21    51 1
    51    21    52 1
    52    22    53 1
    53    22    54 1
    54    22    55 1
@<TRIPOS>SUBSTRUCTURE
     1 LAX         1 TEMP              0 ****  ****    0 ROOT
