@<TRIPOS>MOLECULE
LAX
   55    54     1     0     0
SMALL
bcc


@<TRIPOS>ATOM
      1 C1         -1.8510    1.8970   -0.7200 c         1 LAX      0.907600
      2 O1         -2.5440    2.8470   -1.1890 o         1 LAX     -0.853300
      3 O2         -1.5440    1.7870    0.5020 o         1 LAX     -0.853300
      4 C2         -1.3700    0.7950   -1.6810 c3        1 LAX     -0.194400
      5 C3         -0.8070    1.3820   -2.9510 c3        1 LAX     -0.065400
      6 C4         -0.5010    0.3150   -3.9820 c3        1 LAX     -0.078400
      7 C5          0.0710    0.9170   -5.2470 c3        1 LAX     -0.079400
      8 C6          0.3730   -0.1450   -6.2820 c3        1 LAX     -0.077400
      9 C7          0.9380    0.4670   -7.5470 c3        1 LAX     -0.054200
     10 C8          1.2470   -0.5470   -8.5820 c2        1 LAX     -0.156200
     11 C9          1.6740   -0.2490   -9.8140 c2        1 LAX     -0.191200
     12 C10         1.8790    1.1400  -10.2900 c3        1 LAX     -0.019000
     13 C11         2.4640    1.2280  -11.6490 c2        1 LAX     -0.163200
     14 C12         2.6610    2.3840  -12.2950 c2        1 LAX     -0.180200
     15 C13         2.3080    3.7070  -11.7270 c3        1 LAX     -0.020000
     16 C14         2.6880    4.8500  -12.5910 c2        1 LAX     -0.170200
     17 C15         2.4130    6.1240  -12.2890 c2        1 LAX     -0.176200
     18 C16         1.6940    6.5430  -11.0630 c3        1 LAX     -0.051200
     19 C17         1.5600    8.0480  -10.9600 c3        1 LAX     -0.075400
     20 C18         0.8220    8.4450   -9.7000 c3        1 LAX     -0.082400
     21 C19         0.6850    9.9480   -9.5910 c3        1 LAX     -0.078400
     22 C20        -0.0510   10.3470   -8.3380 c3        1 LAX     -0.094100
     23 H21        -0.6010    0.1660   -1.1670 hc        1 LAX      0.018700
     24 H22        -2.2470    0.1410   -1.9170 hc        1 LAX      0.018700
     25 H31         0.1290    1.9540   -2.7160 hc        1 LAX      0.044200
     26 H32        -1.5480    2.1180   -3.3650 hc        1 LAX      0.044200
     27 H41        -1.4380   -0.2500   -4.2260 hc        1 LAX      0.026700
     28 H42         0.2270   -0.4230   -3.5550 hc        1 LAX      0.026700
     29 H51        -0.6580    1.6580   -5.6700 hc        1 LAX      0.036700
     30 H52         1.0090    1.4820   -5.0030 hc        1 LAX      0.036700
     31 H61        -0.5640   -0.7120   -6.5250 hc        1 LAX      0.036700
     32 H62         1.1060   -0.8830   -5.8610 hc        1 LAX      0.036700
     33 H71         1.8740    1.0410   -7.3000 hc        1 LAX      0.047700
     34 H72         0.2050    1.2140   -7.9610 hc        1 LAX      0.047700
     35 H8          1.1070   -1.5990   -8.2820 ha        1 LAX      0.121000
     36 H9          1.8880   -1.0510  -10.5390 ha        1 LAX      0.115000
     37 H101        2.5470    1.6880   -9.5640 hc        1 LAX      0.057700
     38 H102        0.8900    1.6850  -10.2740 hc        1 LAX      0.057700
     39 H11         2.7450    0.2740  -12.1230 ha        1 LAX      0.120000
     40 H12         3.1040    2.3860  -13.3040 ha        1 LAX      0.118000
     41 H131        1.1970    3.7410  -11.5320 hc        1 LAX      0.059200
     42 H132        2.8030    3.8240  -10.7200 hc        1 LAX      0.059200
     43 H14         3.2270    4.6040  -13.5200 ha        1 LAX      0.118000
     44 H15         2.7230    6.9350  -12.9690 ha        1 LAX      0.118000
     45 H161        2.2370    6.1520  -10.1590 hc        1 LAX      0.051200
     46 H162        0.6720    6.0730  -11.0510 hc        1 LAX      0.051200
     47 H171        1.0110    8.4400  -11.8570 hc        1 LAX      0.037200
     48 H172        2.5780    8.5180  -10.9640 hc        1 LAX      0.037200
     49 H181       -0.1970    7.9740   -9.6960 hc        1 LAX      0.044700
     50 H182        1.3690    8.0520   -8.8030 hc        1 LAX      0.044700
     51 H191        1.7040   10.4170   -9.5950 hc        1 LAX      0.034200
     52 H192        0.1390   10.3400  -10.4900 hc        1 LAX      0.034200
     53 H201       -1.0790    9.9090   -8.3280 hc        1 LAX      0.034367
     54 H202        0.4910    9.9850   -7.4310 hc        1 LAX      0.034367
     55 H203       -0.1400   11.4580   -8.2760 hc        1 LAX      0.034367
@<TRIPOS>BOND
     1    1    2 1   
     2    1    3 1   
     3    1    4 1   
     4    4    5 1   
     5    4   23 1   
     6    4   24 1   
     7    5    6 1   
     8    5   25 1   
     9    5   26 1   
    10    6    7 1   
    11    6   27 1   
    12    6   28 1   
    13    7    8 1   
    14    7   29 1   
    15    7   30 1   
    16    8    9 1   
    17    8   31 1   
    18    8   32 1   
    19    9   10 1   
    20    9   33 1   
    21    9   34 1   
    22   10   11 2   
    23   10   35 1   
    24   11   12 1   
    25   11   36 1   
    26   12   13 1   
    27   12   37 1   
    28   12   38 1   
    29   13   14 2   
    30   13   39 1   
    31   14   15 1   
    32   14   40 1   
    33   15   16 1   
    34   15   41 1   
    35   15   42 1   
    36   16   17 2   
    37   16   43 1   
    38   17   18 1   
    39   17   44 1   
    40   18   19 1   
    41   18   45 1   
    42   18   46 1   
    43   19   20 1   
    44   19   47 1   
    45   19   48 1   
    46   20   21 1   
    47   20   49 1   
    48   20   50 1   
    49   21   22 1   
    50   21   51 1   
    51   21   52 1   
    52   22   53 1   
    53   22   54 1   
    54   22   55 1   
@<TRIPOS>SUBSTRUCTURE
     1 LAX         1 TEMP              0 ****  ****    0 ROOT
