@<TRIPOS>MOLECULE
LAZ
   23    23     1     0     0
SMALL
bcc


@<TRIPOS>ATOM
      1 O7           0.0000     0.0000     0.0000 o          1 LAZ      -0.654100
      2 C7           1.2160     0.0000     0.0000 c          1 LAZ       0.593700
      3 N8           1.8910     0.0000     1.1660 ns         1 LAZ      -0.186900
      4 C9           1.1580    -0.0000     2.4350 c3         1 LAZ       0.044000
      5 C10          2.1520    -0.0020     3.5980 c3         1 LAZ       0.209400
      6 O10          2.9750     1.1640     3.5220 oh         1 LAZ      -0.596800
      7 C6           1.9540    -0.0000    -1.2800 ca         1 LAZ      -0.154600
      8 C5           1.2590     0.0000    -2.4900 ca         1 LAZ      -0.049000
      9 C4           1.9530     0.0010    -3.6810 ca         1 LAZ      -0.111000
     10 C3           3.3370     0.0010    -3.6790 ca         1 LAZ      -0.015600
     11 Cl3          4.2050    -0.0000    -5.1830 cl         1 LAZ      -0.023400
     12 C2           4.0330     0.0000    -2.4810 ca         1 LAZ      -0.111000
     13 C1           3.3500     0.0050    -1.2830 ca         1 LAZ      -0.049000
     14 H8           2.8900    -0.0520     1.1660 hn         1 LAZ       0.185500
     15 H9C1         0.5360     0.8850     2.4930 h1         1 LAZ       0.032700
     16 H9C2         0.5340    -0.8840     2.4920 h1         1 LAZ       0.032700
     17 H101         1.6100    -0.0010     4.5360 h1         1 LAZ      -0.007300
     18 H102         2.7730    -0.8870     3.5410 h1         1 LAZ      -0.007300
     19 H10          3.3930     1.3080     4.3550 ho         1 LAZ       0.396000
     20 H5           0.1760     0.0000    -2.4940 ha         1 LAZ       0.118500
     21 H4           1.4140     0.0010    -4.6210 ha         1 LAZ       0.117000
     22 H2           5.1160     0.0020    -2.4860 ha         1 LAZ       0.117000
     23 H1           3.8950     0.0050    -0.3470 ha         1 LAZ       0.118500
@<TRIPOS>BOND
     1     1     2 2   
     2     2     3 1   
     3     2     7 1   
     4     3     4 1   
     5     3    14 1   
     6     4     5 1   
     7     4    15 1   
     8     4    16 1   
     9     5     6 1   
    10     5    17 1   
    11     5    18 1   
    12     6    19 1   
    13     7     8 ar  
    14     7    13 ar  
    15     8     9 ar  
    16     8    20 1   
    17     9    10 ar  
    18     9    21 1   
    19    10    11 1   
    20    10    12 ar  
    21    12    13 ar  
    22    12    22 1   
    23    13    23 1   
@<TRIPOS>SUBSTRUCTURE
     1 LAZ         1 TEMP              0 ****  ****    0 ROOT
