@<TRIPOS>MOLECULE
LB1
   38    40     1     0     0
SMALL
bcc


@<TRIPOS>ATOM
      1 C10          0.0000     0.0000     0.0000 c3         1 LB1      -0.165700
      2 C13          2.0840    -1.2400    -0.6690 c          1 LB1       0.615100
      3 C07          1.5500     0.0000     0.0000 c3         1 LB1      -0.139700
      4 C08          1.8950     0.0000     1.5190 c3         1 LB1       0.184100
      5 C09         -0.3440    -0.0000     1.5190 c3         1 LB1       0.196100
      6 C11          1.5510     1.4340     2.0200 c3         1 LB1      -0.064400
      7 C12          0.0010     1.4340     2.0200 c3         1 LB1      -0.072400
      8 C14         -0.5330    -1.2380    -0.6730 c          1 LB1       0.971600
      9 O01          0.7760    -0.7710     2.0670 os         1 LB1      -0.364600
     10 O02          2.2070    -2.2670    -0.0340 o          1 LB1      -0.626100
     11 O04         -0.6740    -2.2570    -0.0390 o          1 LB1      -0.880800
     12 H1          -0.3830     0.8930    -0.4790 hc         1 LB1       0.028700
     13 H3           1.9340     0.8920    -0.4800 hc         1 LB1       0.024700
     14 H4           2.8820    -0.3650     1.7780 h1         1 LB1       0.047700
     15 H5          -1.3300    -0.3660     1.7790 h1         1 LB1       0.061700
     16 H6           1.9350     1.5930     3.0210 hc         1 LB1       0.006700
     17 H7           1.9350     2.1820     1.3370 hc         1 LB1       0.006700
     18 H8          -0.3830     1.5940     3.0210 hc         1 LB1       0.009200
     19 H9          -0.3830     2.1820     1.3360 hc         1 LB1       0.009200
     20 O1          -0.8520    -1.2100    -1.9760 o          1 LB1      -0.880800
     21 N1           2.4250    -1.2100    -1.9730 n          1 LB1      -0.144800
     22 C2           2.9480    -2.4090    -2.6450 c3         1 LB1       0.058500
     23 C3           2.1420    -2.6390    -3.9280 c3         1 LB1       0.117300
     24 N2           2.1590    -1.4140    -4.7390 n3         1 LB1      -0.557600
     25 C5           1.5040    -0.3020    -4.0400 c3         1 LB1       0.117300
     26 C6           2.2780     0.0220    -2.7620 c3         1 LB1       0.058500
     27 C1           1.5440    -1.6450    -6.0540 c3         1 LB1       0.189100
     28 H10          3.9910    -2.2600    -2.8940 h1         1 LB1       0.020200
     29 H11          2.8420    -3.2670    -1.9910 h1         1 LB1       0.020200
     30 H12          2.5850    -3.4510    -4.4910 h1         1 LB1       0.033950
     31 H13          1.1190    -2.8860    -3.6710 h1         1 LB1       0.033950
     32 H14          1.4900     0.5700    -4.6830 h1         1 LB1       0.033950
     33 H15          0.4900    -0.5850    -3.7840 h1         1 LB1       0.033950
     34 H16          3.2580     0.4060    -3.0200 h1         1 LB1       0.020200
     35 H17          1.7340     0.7600    -2.1850 h1         1 LB1       0.020200
     36 H18          1.5610    -0.7250    -6.6260 h1         1 LB1      -0.006967
     37 H19          0.5190    -1.9690    -5.9210 h1         1 LB1      -0.006967
     38 H20          2.0990    -2.4100    -6.5830 h1         1 LB1      -0.006967
@<TRIPOS>BOND
     1     1     3 1   
     2     1     5 1   
     3     1     8 1   
     4     1    12 1   
     5     2     3 1   
     6     2    10 2   
     7     2    21 1   
     8     3     4 1   
     9     3    13 1   
    10     4     6 1   
    11     4     9 1   
    12     4    14 1   
    13     5     7 1   
    14     5     9 1   
    15     5    15 1   
    16     6     7 1   
    17     6    16 1   
    18     6    17 1   
    19     7    18 1   
    20     7    19 1   
    21     8    11 1   
    22     8    20 1   
    23    21    22 1   
    24    21    26 1   
    25    22    23 1   
    26    22    28 1   
    27    22    29 1   
    28    23    24 1   
    29    23    30 1   
    30    23    31 1   
    31    24    25 1   
    32    24    27 1   
    33    25    26 1   
    34    25    32 1   
    35    25    33 1   
    36    26    34 1   
    37    26    35 1   
    38    27    36 1   
    39    27    37 1   
    40    27    38 1   
@<TRIPOS>SUBSTRUCTURE
     1 LB1         1 TEMP              0 ****  ****    0 ROOT
