@<TRIPOS>MOLECULE
LBH
   49    53     1     0     0
SMALL
bcc


@<TRIPOS>ATOM
      1 O1           0.0000     0.0000     0.0000 o          1 LBH      -0.408000
      2 C21          1.2170     0.0000     0.0000 c3         1 LBH       0.354000
      3 N3           1.8910     0.0000     1.1670 n7         1 LBH       0.080000
      4 O2           1.1830     0.0060     2.3930 oh         1 LBH      -0.239000
      5 C20          1.9490    -0.0050    -1.2690 c2         1 LBH      -0.170000
      6 C19          1.2740    -0.0110    -2.4360 c2         1 LBH       0.025000
      7 C16          2.0090    -0.0160    -3.7120 c3         1 LBH      -0.006000
      8 C15          3.4080    -0.0210    -3.7160 c2         1 LBH      -0.153000
      9 C14          4.0890    -0.0260    -4.9140 c2         1 LBH      -0.055500
     10 C17          1.3130    -0.0220    -4.9240 c2         1 LBH      -0.153000
     11 C18          2.0090    -0.0270    -6.1140 c2         1 LBH      -0.055500
     12 C13          3.3930    -0.0270    -6.1100 c2         1 LBH      -0.120000
     13 C12          4.1460    -0.0310    -7.4160 c3         1 LBH      -0.036000
     14 N2           4.3870    -1.4180    -7.8380 n7         1 LBH      -0.066000
     15 C11          5.1200    -1.4620    -9.1090 c3         1 LBH      -0.097000
     16 C10          5.3510    -2.9190    -9.5150 c3         1 LBH      -0.013000
     17 C3           6.1030    -2.9640   -10.8200 c2         1 LBH      -0.162000
     18 C4           7.5580    -2.9930   -10.9860 ca         1 LBH      -0.080000
     19 C9           7.7910    -3.0320   -12.3730 ca         1 LBH      -0.182000
     20 N1           6.5600    -3.0270   -12.9910 na         1 LBH       0.337000
     21 C2           5.5670    -2.9920   -12.0500 c2         1 LBH      -0.217000
     22 C1           4.0910    -2.9840   -12.3510 c3         1 LBH      -0.026000
     23 C8           9.0990    -3.0650   -12.8440 ca         1 LBH      -0.102000
     24 C7          10.1480    -3.0600   -11.9510 ca         1 LBH      -0.087000
     25 C6           9.9130    -3.0210   -10.5830 ca         1 LBH      -0.133000
     26 C5           8.6360    -2.9880   -10.0990 ca         1 LBH      -0.047000
     27 H1           2.8920    -0.0290     1.1660 hn         1 LBH       0.077000
     28 H2           1.7900    -0.1010     3.1070 ho         1 LBH       0.194000
     29 H3           1.4830     0.8720    -0.8350 DU         1 LBH       0.024000
     30 H4           1.7380     0.8630    -2.8780 DU         1 LBH       0.095000
     31 H5           3.9540    -0.0210    -2.7810 ha         1 LBH       0.119500
     32 H6           5.1730    -0.0280    -4.9190 ha         1 LBH       0.107000
     33 H7           0.2300    -0.0220    -4.9280 ha         1 LBH       0.119500
     34 H8           1.4710    -0.0300    -7.0540 ha         1 LBH       0.107000
     35 H9           5.0940     0.4770    -7.2880 h1         1 LBH       0.047500
     36 H10          3.5610     0.4800    -8.1710 h1         1 LBH       0.047500
     37 H11          4.9130    -1.8950    -7.1320 hn         1 LBH       0.051000
     38 H13          4.5430    -0.9600    -9.8760 h1         1 LBH       0.048500
     39 H14          6.0750    -0.9640    -8.9920 h1         1 LBH       0.048500
     40 H15          5.9290    -3.4210    -8.7480 hc         1 LBH       0.059000
     41 H16          4.3960    -3.4170    -9.6310 hc         1 LBH       0.059000
     42 H17          6.4130    -3.0530   -13.9810 hn         1 LBH       0.064000
     43 H18          3.9360    -3.1790   -13.4060 hc         1 LBH       0.048667
     44 H19          3.6760    -2.0150   -12.0990 hc         1 LBH       0.048667
     45 H20          3.5980    -3.7510   -11.7660 hc         1 LBH       0.048667
     46 H21          9.2920    -3.0950   -13.9100 ha         1 LBH       0.098000
     47 H22         11.1670    -3.0860   -12.3200 ha         1 LBH       0.100000
     48 H23         10.7500    -3.0180    -9.8950 ha         1 LBH       0.101000
     49 H24          8.4610    -2.9580    -9.0300 ha         1 LBH       0.099000
@<TRIPOS>BOND
     1     1     2 1   
     2     2     3 1   
     3     2     5 1   
     4     2    29 1   
     5     3     4 1   
     6     3    27 1   
     7     4    28 1   
     8     5     6 1   
     9     5    29 1   
    10     6     7 1   
    11     6    30 1   
    12     7     8 1   
    13     7    10 1   
    14     7    30 1   
    15     8     9 1   
    16     8    31 1   
    17     9    12 1   
    18     9    32 1   
    19    10    11 1   
    20    10    33 1   
    21    11    12 1   
    22    11    34 1   
    23    12    13 1   
    24    13    14 1   
    25    13    35 1   
    26    13    36 1   
    27    14    15 1   
    28    14    37 1   
    29    15    16 1   
    30    15    38 1   
    31    15    39 1   
    32    16    17 1   
    33    16    40 1   
    34    16    41 1   
    35    17    18 1   
    36    17    21 1   
    37    18    19 1   
    38    18    26 1   
    39    19    20 1   
    40    19    23 1   
    41    20    21 1   
    42    20    42 1   
    43    21    22 1   
    44    22    43 1   
    45    22    44 1   
    46    22    45 1   
    47    23    24 1   
    48    23    46 1   
    49    24    25 1   
    50    24    47 1   
    51    25    26 1   
    52    25    48 1   
    53    26    49 1   
@<TRIPOS>SUBSTRUCTURE
     1 LBH         1 TEMP              0 ****  ****    0 ROOT
