@<TRIPOS>MOLECULE
molecule
   49    51     1     0     0
SMALL
bcc


@<TRIPOS>ATOM
      1 O1           0.0000     0.0000     0.0000 o          1 LBH      -0.584100
      2 C21          1.2170     0.0000     0.0000 c          1 LBH       0.679300
      3 N3           1.8910     0.0000     1.1670 ns         1 LBH      -0.469400
      4 O2           1.1830     0.0060     2.3930 oh         1 LBH      -0.361100
      5 C20          1.9490    -0.0050    -1.2690 ce         1 LBH      -0.257200
      6 C19          1.2740    -0.0110    -2.4360 cf         1 LBH      -0.010200
      7 C16          2.0090    -0.0160    -3.7120 ca         1 LBH      -0.083800
      8 C15          3.4080    -0.0210    -3.7160 ca         1 LBH      -0.106000
      9 C14          4.0890    -0.0260    -4.9140 ca         1 LBH      -0.119000
     10 C17          1.3130    -0.0220    -4.9240 ca         1 LBH      -0.106000
     11 C18          2.0090    -0.0270    -6.1140 ca         1 LBH      -0.119000
     12 C13          3.3930    -0.0270    -6.1100 ca         1 LBH      -0.070300
     13 C12          4.1460    -0.0310    -7.4160 c3         1 LBH       0.202100
     14 N2           4.3870    -1.4180    -7.8380 n7         1 LBH      -0.819200
     15 C11          5.1200    -1.4620    -9.1090 c3         1 LBH       0.157800
     16 C10          5.3510    -2.9190    -9.5150 c3         1 LBH      -0.000200
     17 C3           6.1030    -2.9640   -10.8200 cc         1 LBH      -0.158400
     18 C4           7.5580    -2.9930   -10.9860 ca         1 LBH      -0.095800
     19 C9           7.7910    -3.0320   -12.3730 ca         1 LBH      -0.037200
     20 N1           6.5600    -3.0270   -12.9910 na         1 LBH      -0.180400
     21 C2           5.5670    -2.9920   -12.0500 cd         1 LBH      -0.047300
     22 C1           4.0910    -2.9840   -12.3510 c3         1 LBH      -0.030900
     23 C8           9.0990    -3.0650   -12.8440 ca         1 LBH      -0.143000
     24 C7          10.1480    -3.0600   -11.9510 ca         1 LBH      -0.110000
     25 C6           9.9130    -3.0210   -10.5830 ca         1 LBH      -0.157000
     26 C5           8.6360    -2.9880   -10.0990 ca         1 LBH      -0.082000
     27 H1           2.8920    -0.0190     1.1660 hn         1 LBH       0.318500
     28 H2           1.7950     0.0570     3.1090 ho         1 LBH       0.397000
     29 H3           3.0320    -0.0040    -1.2700 ha         1 LBH       0.128000
     30 H4           0.1900    -0.0120    -2.4350 ha         1 LBH       0.161000
     31 H5           3.9540    -0.0210    -2.7810 ha         1 LBH       0.134500
     32 H6           5.1730    -0.0280    -4.9190 ha         1 LBH       0.135000
     33 H7           0.2300    -0.0220    -4.9280 ha         1 LBH       0.134500
     34 H8           1.4710    -0.0300    -7.0540 ha         1 LBH       0.135000
     35 H9           3.5610     0.4800    -8.1710 h1         1 LBH       0.039200
     36 H10          5.0940     0.4770    -7.2880 h1         1 LBH       0.039200
     37 H11          4.9130    -1.8950    -7.1320 hn         1 LBH       0.354800
     38 H13          6.0750    -0.9640    -8.9920 h1         1 LBH       0.035200
     39 H14          4.5430    -0.9600    -9.8760 h1         1 LBH       0.035200
     40 H15          5.9290    -3.4210    -8.7480 hc         1 LBH       0.051700
     41 H16          4.3960    -3.4170    -9.6310 hc         1 LBH       0.051700
     42 H17          6.4130    -3.0530   -13.9810 hn         1 LBH       0.295700
     43 H18          3.6760    -2.0150   -12.0990 hc         1 LBH       0.050033
     44 H19          3.5980    -3.7510   -11.7660 hc         1 LBH       0.050033
     45 H20          3.9360    -3.1780   -13.4060 hc         1 LBH       0.050033
     46 H21          9.2920    -3.0950   -13.9100 ha         1 LBH       0.125000
     47 H22         11.1670    -3.0860   -12.3200 ha         1 LBH       0.129000
     48 H23         10.7500    -3.0180    -9.8950 ha         1 LBH       0.127000
     49 H24          8.4610    -2.9580    -9.0300 ha         1 LBH       0.127000
@<TRIPOS>BOND
     1     4     3 1
     2     3     2 1
     3     2     5 1
     4     2     1 2
     5     5     6 2
     6     8     9 ar
     7     8     7 ar
     8     9    12 ar
     9     6     7 1
    10     7    10 ar
    11    12    13 1
    12    12    11 ar
    13    14    13 1
    14    14    15 1
    15    16    15 1
    16    16    17 1
    17    10    11 ar
    18    26    25 ar
    19    26    18 ar
    20    25    24 ar
    21    17    18 1
    22    17    21 2
    23    18    19 ar
    24    24    23 ar
    25    21    22 1
    26    21    20 1
    27    19    23 ar
    28    19    20 1
    29     3    27 1
    30     4    28 1
    31     5    29 1
    32     6    30 1
    33     8    31 1
    34     9    32 1
    35    10    33 1
    36    11    34 1
    37    13    35 1
    38    13    36 1
    39    14    37 1
    40    15    38 1
    41    15    39 1
    42    16    40 1
    43    16    41 1
    44    20    42 1
    45    22    43 1
    46    22    44 1
    47    22    45 1
    48    23    46 1
    49    24    47 1
    50    25    48 1
    51    26    49 1
@<TRIPOS>SUBSTRUCTURE
     1 LBH         1 TEMP              0 ****  ****    0 ROOT
