@<TRIPOS>MOLECULE
LBP
   35    34     1     0     0
SMALL
bcc


@<TRIPOS>ATOM
      1 N            0.0000     0.0000     0.0000 nz         1 LBP       0.036400
      2 P            1.8760    -0.1380     6.1150 p5         1 LBP       0.714700
      3 S            2.1790     1.3070     3.8360 s6         1 LBP       0.317700
      4 C1           1.9720    -1.2310    -0.7100 c          1 LBP       0.975600
      5 O1           3.2250    -1.2650    -1.1890 o          1 LBP      -0.840300
      6 CA           1.4690     0.0000     0.0000 c3         1 LBP      -0.202500
      7 CB           1.9790     0.0000     1.4420 c3         1 LBP       0.019600
      8 CD           1.6670     2.8780     4.5850 c3         1 LBP      -0.006600
      9 CE           2.2810     4.0410     3.8040 c3         1 LBP      -0.010400
     10 CF           1.9420     5.3600     4.4990 c3         1 LBP      -0.032400
     11 CG           1.5740     1.3080     2.1260 c3         1 LBP      -0.038600
     12 NS           1.4730     0.2110     4.5640 n2         1 LBP      -0.552700
     13 OS           3.5730     1.0540     3.9450 o          1 LBP      -0.485800
     14 C18          2.5570     6.5220     3.7180 c3         1 LBP       0.003900
     15 O1T          1.2460    -2.1870    -0.8490 o          1 LBP      -0.840300
     16 OP1          3.4530    -0.4530     6.2000 o          1 LBP      -0.709167
     17 OP2          1.0450    -1.4250     6.6080 o          1 LBP      -0.709167
     18 OP3          1.5560     1.0180     6.9800 o          1 LBP      -0.709167
     19 HN          -0.3330    -0.8170    -0.4720 hn         1 LBP       0.213800
     20 HNA         -0.3340     0.8170    -0.4720 hn         1 LBP       0.213800
     21 HA           1.8300     0.8840    -0.5110 hx         1 LBP       0.067700
     22 HB           1.5460    -0.8370     1.9780 hc         1 LBP       0.080200
     23 HBA          3.0580    -0.0890     1.4440 hc         1 LBP       0.080200
     24 HD           2.0050     2.9150     5.6130 h1         1 LBP       0.090200
     25 HDA          0.5860     2.9560     4.5570 h1         1 LBP       0.090200
     26 HE           1.8820     4.0500     2.7970 hc         1 LBP       0.001200
     27 HEA          3.3570     3.9200     3.7640 hc         1 LBP       0.001200
     28 HF           2.3410     5.3500     5.5060 hc         1 LBP       0.014200
     29 HFA          0.8660     5.4800     4.5390 hc         1 LBP       0.014200
     30 HG           2.0060     2.1440     1.5900 h1         1 LBP       0.015200
     31 HGA          0.4940     1.3970     2.1250 h1         1 LBP       0.015200
     32 H18          3.6330     6.4010     3.6780 hc         1 LBP      -0.012633
     33 H18A         2.3160     7.4560     4.2120 hc         1 LBP      -0.012633
     34 H18B         2.1570     6.5320     2.7120 hc         1 LBP      -0.012633
     35 HN3         -0.3340     0.0120     0.9430 hn         1 LBP       0.213800
@<TRIPOS>BOND
     1     1     6 1   
     2     1    19 1   
     3     1    20 1   
     4     1    35 1   
     5     2    12 1   
     6     2    16 1   
     7     2    17 1   
     8     2    18 1   
     9     3     8 1   
    10     3    11 1   
    11     3    12 2   
    12     3    13 2   
    13     4     5 1   
    14     4     6 1   
    15     4    15 1   
    16     6     7 1   
    17     6    21 1   
    18     7    11 1   
    19     7    22 1   
    20     7    23 1   
    21     8     9 1   
    22     8    24 1   
    23     8    25 1   
    24     9    10 1   
    25     9    26 1   
    26     9    27 1   
    27    10    14 1   
    28    10    28 1   
    29    10    29 1   
    30    11    30 1   
    31    11    31 1   
    32    14    32 1   
    33    14    33 1   
    34    14    34 1   
@<TRIPOS>SUBSTRUCTURE
     1 LBP         1 TEMP              0 ****  ****    0 ROOT
