@<TRIPOS>MOLECULE
LBR
   93    92     1     0     0
SMALL
bcc


@<TRIPOS>ATOM
      1 BR1         0.0870   -0.0840    0.3180 br        1 LBR     -0.178400
      2 C33         1.9880   -0.3740    0.4320 c3        1 LBR     -0.009000
      3 CCA         2.5760    0.0440    1.7560 c3        1 LBR     -0.081400
      4 CBA         4.0700   -0.2110    1.7740 c3        1 LBR     -0.080400
      5 CAA         4.6760    0.2040    3.0980 c3        1 LBR     -0.078400
      6 CA9         6.1680   -0.0490    3.1200 c3        1 LBR     -0.079400
      7 CA8         6.7750    0.3650    4.4430 c3        1 LBR     -0.079400
      8 CA7         8.2670    0.1130    4.4660 c3        1 LBR     -0.079400
      9 CA6         8.8740    0.5280    5.7890 c3        1 LBR     -0.079400
     10 CA5        10.3660    0.2760    5.8110 c3        1 LBR     -0.079400
     11 CA4        10.9720    0.6900    7.1360 c3        1 LBR     -0.079400
     12 CA3        12.4650    0.4420    7.1510 c3        1 LBR     -0.079400
     13 CA2        13.0600    0.8410    8.4850 c3        1 LBR     -0.127400
     14 CA1        14.5520    0.7280    8.4610 c         1 LBR      0.637100
     15 OA1        15.3480    1.0430    7.5760 o         1 LBR     -0.536000
     16 OG1        15.0560    0.2000    9.6220 os        1 LBR     -0.455900
     17 CG1        16.4830    0.0990    9.7200 c3        1 LBR      0.136400
     18 CG2        16.8230   -0.2880   11.1590 c3        1 LBR      0.102100
     19 CG3        15.9480   -1.4160   11.7100 c3        1 LBR      0.122400
     20 O3         14.7350   -0.9540   12.2580 oh        1 LBR     -0.595800
     21 OG2        16.6320    0.9010   11.9420 os        1 LBR     -0.435900
     22 CB1        17.3460    1.0140   13.1080 c         1 LBR      0.642100
     23 OB1        18.1600    0.1320   13.3860 o         1 LBR     -0.543000
     24 CB2        16.9840    2.2480   13.8740 c3        1 LBR     -0.126400
     25 CB3        18.1880    2.8140   14.5970 c3        1 LBR     -0.079400
     26 CB4        17.7870    3.9760   15.4790 c3        1 LBR     -0.078400
     27 CB5        18.9880    4.5580   16.1920 c3        1 LBR     -0.079400
     28 CB6        18.5900    5.7180   17.0790 c3        1 LBR     -0.079400
     29 CB7        19.7910    6.3000   17.7930 c3        1 LBR     -0.079400
     30 CB8        19.3940    7.4600   18.6800 c3        1 LBR     -0.079400
     31 CB9        20.5950    8.0420   19.3950 c3        1 LBR     -0.079400
     32 CAB        20.1970    9.2020   20.2820 c3        1 LBR     -0.078400
     33 CBB        21.3980    9.7830   20.9980 c3        1 LBR     -0.079400
     34 CCB        21.0010   10.9440   21.8840 c3        1 LBR     -0.079400
     35 C35        22.2010   11.5250   22.6010 c3        1 LBR     -0.080400
     36 C36        21.8100   12.6820   23.4850 c3        1 LBR     -0.092100
     37 H1          2.1520   -1.4630    0.2540 h1        1 LBR      0.071700
     38 H2          2.4450    0.2050   -0.4040 h1        1 LBR      0.071700
     39 H3          2.3820    1.1350    1.9380 hc        1 LBR      0.055700
     40 H4          2.0900   -0.5250    2.5920 hc        1 LBR      0.055700
     41 H5          4.5610    0.3570    0.9410 hc        1 LBR      0.041700
     42 H6          4.2690   -1.3010    1.5940 hc        1 LBR      0.041700
     43 H7          4.1850   -0.3650    3.9310 hc        1 LBR      0.042700
     44 H8          4.4760    1.2930    3.2780 hc        1 LBR      0.042700
     45 H9          6.3680   -1.1390    2.9400 hc        1 LBR      0.040700
     46 H10         6.6590    0.5190    2.2870 hc        1 LBR      0.040700
     47 H11         6.5750    1.4550    4.6240 hc        1 LBR      0.040700
     48 H12         6.2840   -0.2030    5.2770 hc        1 LBR      0.040700
     49 H13         8.4670   -0.9760    4.2850 hc        1 LBR      0.040700
     50 H14         8.7580    0.6820    3.6330 hc        1 LBR      0.040700
     51 H15         8.6730    1.6170    5.9700 hc        1 LBR      0.040700
     52 H16         8.3840   -0.0420    6.6230 hc        1 LBR      0.040700
     53 H17        10.5670   -0.8130    5.6300 hc        1 LBR      0.042700
     54 H18        10.8570    0.8460    4.9790 hc        1 LBR      0.042700
     55 H19        10.4850    0.1170    7.9680 hc        1 LBR      0.042200
     56 H20        10.7680    1.7780    7.3180 hc        1 LBR      0.042200
     57 H21        12.6710   -0.6440    6.9570 hc        1 LBR      0.057700
     58 H22        12.9610    1.0260    6.3310 hc        1 LBR      0.057700
     59 H23        12.8110    1.9110    8.7200 hc        1 LBR      0.079700
     60 H24        12.6450    0.2020    9.3100 hc        1 LBR      0.079700
     61 H25        16.9480    1.0820    9.4470 h1        1 LBR      0.068200
     62 H26        16.8320   -0.7000    9.0150 h1        1 LBR      0.068200
     63 H27        17.9070   -0.5960   11.1940 h1        1 LBR      0.087700
     64 H28        15.7450   -2.1540   10.8880 h1        1 LBR      0.056700
     65 H29        16.4730   -1.9220   12.5660 h1        1 LBR      0.056700
     66 H30        14.3440   -0.3380   11.6240 ho        1 LBR      0.416000
     67 H31        16.1850    1.9580   14.6100 hc        1 LBR      0.081200
     68 H32        16.5460    3.0100   13.1770 hc        1 LBR      0.081200
     69 H33        18.6660    2.0080   15.2150 hc        1 LBR      0.057700
     70 H34        18.9520    3.1520   13.8480 hc        1 LBR      0.057700
     71 H35        17.2960    4.7710   14.8570 hc        1 LBR      0.041700
     72 H36        17.0310    3.6320   16.2350 hc        1 LBR      0.041700
     73 H37        19.4800    3.7620   16.8110 hc        1 LBR      0.042700
     74 H38        19.7430    4.9030   15.4370 hc        1 LBR      0.042700
     75 H39        18.0980    6.5140   16.4600 hc        1 LBR      0.040200
     76 H40        17.8350    5.3720   17.8340 hc        1 LBR      0.040200
     77 H41        20.2830    5.5040   18.4120 hc        1 LBR      0.040200
     78 H42        20.5470    6.6450   17.0380 hc        1 LBR      0.040200
     79 H43        18.9030    8.2570   18.0610 hc        1 LBR      0.039700
     80 H44        18.6380    7.1150   19.4340 hc        1 LBR      0.039700
     81 H45        21.3510    8.3860   18.6410 hc        1 LBR      0.039700
     82 H46        21.0850    7.2450   20.0150 hc        1 LBR      0.039700
     83 H47        19.4410    8.8580   21.0350 hc        1 LBR      0.039700
     84 H48        19.7070    9.9990   19.6620 hc        1 LBR      0.039700
     85 H49        22.1550   10.1270   20.2440 hc        1 LBR      0.039700
     86 H50        21.8880    8.9860   21.6180 hc        1 LBR      0.039700
     87 H51        20.5110   11.7410   21.2640 hc        1 LBR      0.039700
     88 H52        20.2440   10.6000   22.6380 hc        1 LBR      0.039700
     89 H53        22.6890   10.7270   23.2200 hc        1 LBR      0.038700
     90 H54        22.9570   11.8670   21.8460 hc        1 LBR      0.038700
     91 H55        22.7080   13.0950   24.0030 hc        1 LBR      0.032700
     92 H56        21.0750   12.3550   24.2600 hc        1 LBR      0.032700
     93 H57        21.3430   13.4980   22.8830 hc        1 LBR      0.032700
@<TRIPOS>BOND
     1    1    2 1   
     2    2    3 1   
     3    2   37 1   
     4    2   38 1   
     5    3    4 1   
     6    3   39 1   
     7    3   40 1   
     8    4    5 1   
     9    4   41 1   
    10    4   42 1   
    11    5    6 1   
    12    5   43 1   
    13    5   44 1   
    14    6    7 1   
    15    6   45 1   
    16    6   46 1   
    17    7    8 1   
    18    7   47 1   
    19    7   48 1   
    20    8    9 1   
    21    8   49 1   
    22    8   50 1   
    23    9   10 1   
    24    9   51 1   
    25    9   52 1   
    26   10   11 1   
    27   10   53 1   
    28   10   54 1   
    29   11   12 1   
    30   11   55 1   
    31   11   56 1   
    32   12   13 1   
    33   12   57 1   
    34   12   58 1   
    35   13   14 1   
    36   13   59 1   
    37   13   60 1   
    38   14   15 2   
    39   14   16 1   
    40   16   17 1   
    41   17   18 1   
    42   17   61 1   
    43   17   62 1   
    44   18   19 1   
    45   18   21 1   
    46   18   63 1   
    47   19   20 1   
    48   19   64 1   
    49   19   65 1   
    50   20   66 1   
    51   21   22 1   
    52   22   23 2   
    53   22   24 1   
    54   24   25 1   
    55   24   67 1   
    56   24   68 1   
    57   25   26 1   
    58   25   69 1   
    59   25   70 1   
    60   26   27 1   
    61   26   71 1   
    62   26   72 1   
    63   27   28 1   
    64   27   73 1   
    65   27   74 1   
    66   28   29 1   
    67   28   75 1   
    68   28   76 1   
    69   29   30 1   
    70   29   77 1   
    71   29   78 1   
    72   30   31 1   
    73   30   79 1   
    74   30   80 1   
    75   31   32 1   
    76   31   81 1   
    77   31   82 1   
    78   32   33 1   
    79   32   83 1   
    80   32   84 1   
    81   33   34 1   
    82   33   85 1   
    83   33   86 1   
    84   34   35 1   
    85   34   87 1   
    86   34   88 1   
    87   35   36 1   
    88   35   89 1   
    89   35   90 1   
    90   36   91 1   
    91   36   92 1   
    92   36   93 1   
@<TRIPOS>SUBSTRUCTURE
     1 LBR         1 TEMP              0 ****  ****    0 ROOT
