@<TRIPOS>MOLECULE
molecule
   45    46     1     0     0
SMALL
bcc


@<TRIPOS>ATOM
      1 O6           0.0000     0.0000     0.0000 oh         1 LBS      -0.589800
      2 C6           1.4290     0.0000     0.0000 c3         1 LBS       0.145400
      3 C5           1.9400     0.0000     1.4420 c3         1 LBS       0.127100
      4 O5           1.6570    -1.2610     2.0710 os         1 LBS      -0.380600
      5 C2           2.7320    -1.6230     2.9440 c3         1 LBS       0.339600
      6 C1           2.2240    -1.7120     4.3850 c3         1 LBS       0.161400
      7 O1           1.1410    -2.6420     4.4510 oh         1 LBS      -0.573800
      8 O2           3.2770    -2.8820     2.5450 os         1 LBS      -0.375600
      9 C6'          3.6580    -2.9410     1.1690 c3         1 LBS       0.141400
     10 C5'          4.1010    -4.3640     0.8210 c3         1 LBS       0.147100
     11 O5'          2.9760    -5.2690     0.8560 os         1 LBS      -0.392600
     12 C2'          3.3310    -6.4100     0.0580 c3         1 LBS       0.339600
     13 O2'          2.1720    -6.9200    -0.6040 oh         1 LBS      -0.570800
     14 C1'          3.9430    -7.4960     0.9460 c3         1 LBS       0.108400
     15 O1'          2.9800    -7.9150     1.9170 oh         1 LBS      -0.593800
     16 C3'          4.3630    -5.9380    -0.9830 c3         1 LBS       0.106100
     17 O3'          3.8440    -6.0840    -2.3060 oh         1 LBS      -0.568800
     18 C4'          4.5870    -4.4410    -0.6490 c3         1 LBS       0.090100
     19 O4'          5.9690    -4.0960    -0.7530 oh         1 LBS      -0.598800
     20 C3           3.8120    -0.5250     2.8370 c3         1 LBS       0.070100
     21 O3           5.1210    -1.0980     2.8280 oh         1 LBS      -0.581800
     22 C4           3.4840     0.1260     1.4660 c3         1 LBS       0.084100
     23 O4           3.8900     1.4970     1.4370 oh         1 LBS      -0.594800
     24 H1          -0.3140     0.3450    -0.8190 ho         1 LBS       0.401000
     25 H2           1.7900     0.8840    -0.5110 h1         1 LBS       0.030200
     26 H3           1.7900    -0.8840    -0.5110 h1         1 LBS       0.030200
     27 H4           1.4900     0.8080     2.0060 h1         1 LBS       0.080700
     28 H5           3.0260    -2.0460     5.0310 h1         1 LBS       0.031700
     29 H6           1.8820    -0.7360     4.7080 h1         1 LBS       0.031700
     30 H7           0.8390    -2.7110     5.3410 ho         1 LBS       0.399000
     31 H8           2.8140    -2.6640     0.5490 h1         1 LBS       0.046700
     32 H9           4.4770    -2.2540     0.9920 h1         1 LBS       0.046700
     33 H10          4.8790    -4.7020     1.4950 h1         1 LBS       0.075700
     34 H11          1.4400    -6.9110    -0.0090 ho         1 LBS       0.430000
     35 H12          4.8160    -7.1000     1.4510 h1         1 LBS       0.031200
     36 H13          4.2320    -8.3420     0.3350 h1         1 LBS       0.031200
     37 H14          3.3040    -8.6740     2.3730 ho         1 LBS       0.403000
     38 H15          5.2890    -6.4900    -0.8710 h1         1 LBS       0.058700
     39 H16          4.4760    -6.5290    -2.8450 ho         1 LBS       0.401000
     40 H17          3.9770    -3.8120    -1.2860 h1         1 LBS       0.070700
     41 H18          6.1220    -3.6560    -1.5730 ho         1 LBS       0.408000
     42 H19          3.7050     0.1960     3.6380 h1         1 LBS       0.067700
     43 H20          5.6800    -0.6130     3.4120 ho         1 LBS       0.408000
     44 H21          3.9300    -0.4370     0.6550 h1         1 LBS       0.064700
     45 H22          4.6050     1.6000     0.8310 ho         1 LBS       0.410000
@<TRIPOS>BOND
     1    17    16 1
     2    13    12 1
     3    14    15 1
     4    14    12 1
     5    16    12 1
     6    16    18 1
     7    12    11 1
     8    18    19 1
     9    18    10 1
    10    11    10 1
    11    10     9 1
    12     9     8 1
    13     8     5 1
    14     5     6 1
    15     5     4 1
    16     5    20 1
    17     1     2 1
    18     6     7 1
    19     4     3 1
    20    21    20 1
    21     2     3 1
    22    20    22 1
    23     3    22 1
    24    22    23 1
    25     1    24 1
    26     2    25 1
    27     2    26 1
    28     3    27 1
    29     6    28 1
    30     6    29 1
    31     7    30 1
    32     9    31 1
    33     9    32 1
    34    10    33 1
    35    13    34 1
    36    14    35 1
    37    14    36 1
    38    15    37 1
    39    16    38 1
    40    17    39 1
    41    18    40 1
    42    19    41 1
    43    20    42 1
    44    21    43 1
    45    22    44 1
    46    23    45 1
@<TRIPOS>SUBSTRUCTURE
     1 LBS         1 TEMP              0 ****  ****    0 ROOT
