@<TRIPOS>MOLECULE
LBS
   45    46     1     0     0
SMALL
bcc


@<TRIPOS>ATOM
      1 O6          0.4220   -1.3410   -0.4560 oh        1 LBS     -0.590800
      2 C6          1.5970   -0.5960   -0.2270 c3        1 LBS      0.127400
      3 C5          1.7490   -0.2310    1.2500 c3        1 LBS      0.094100
      4 O5          1.7990   -1.4570    2.0020 os        1 LBS     -0.425600
      5 C2          2.9370   -1.5060    2.8480 c3        1 LBS      0.277600
      6 C1          2.5030   -1.6780    4.3180 c3        1 LBS      0.151400
      7 O1          1.7770   -2.8620    4.5310 oh        1 LBS     -0.583800
      8 O2          3.6470   -2.6880    2.5210 os        1 LBS     -0.447600
      9 C6'         3.7470   -3.0140    1.1330 c3        1 LBS      0.117400
     10 C5'         4.5560   -4.3100    1.0700 c3        1 LBS      0.147100
     11 O5'         3.6930   -5.4230    1.3440 os        1 LBS     -0.440600
     12 C2'         3.4240   -6.1610    0.1500 c3        1 LBS      0.260600
     13 O2'         2.2090   -5.6330   -0.3220 oh        1 LBS     -0.620800
     14 C1'         3.3230   -7.6450    0.5250 c3        1 LBS      0.119400
     15 O1'         2.2470   -7.8450    1.4150 oh        1 LBS     -0.595800
     16 C3'         4.5340   -5.8270   -0.8740 c3        1 LBS      0.109100
     17 O3'         4.0750   -5.6940   -2.1930 oh        1 LBS     -0.581800
     18 C4'         5.1620   -4.5170   -0.3340 c3        1 LBS      0.086100
     19 O4'         6.5610   -4.6430   -0.1690 oh        1 LBS     -0.587800
     20 C3          3.7800   -0.2250    2.6260 c3        1 LBS      0.066100
     21 O3          5.0890   -0.4860    2.1640 oh        1 LBS     -0.596800
     22 C4          3.0380    0.5630    1.5210 c3        1 LBS      0.116100
     23 O4          2.6580    1.8470    1.9750 oh        1 LBS     -0.585800
     24 H1          0.4400   -2.0970    0.1460 ho        1 LBS      0.417000
     25 H2          1.4800    0.3370   -0.8400 h1        1 LBS      0.051200
     26 H3          2.4950   -1.1760   -0.5740 h1        1 LBS      0.051200
     27 H4          0.8420    0.3270    1.6130 h1        1 LBS      0.102700
     28 H5          1.8080   -0.8440    4.6010 h1        1 LBS      0.059200
     29 H6          3.4250   -1.6650    4.9590 h1        1 LBS      0.059200
     30 H7          2.2580   -3.5810    4.0980 ho        1 LBS      0.421000
     31 H8          4.2780   -2.1810    0.6000 h1        1 LBS      0.059700
     32 H9          2.7230   -3.1690    0.7020 h1        1 LBS      0.059700
     33 H10         5.3450   -4.3320    1.8710 h1        1 LBS      0.104700
     34 H11         1.5050   -5.9660    0.2530 ho        1 LBS      0.442000
     35 H12         4.2900   -7.9890    0.9730 h1        1 LBS      0.070700
     36 H13         3.0690   -8.2450   -0.3880 h1        1 LBS      0.070700
     37 H14         2.4650   -7.3800    2.2350 ho        1 LBS      0.419000
     38 H15         5.3000   -6.6510   -0.9060 h1        1 LBS      0.098700
     39 H16         3.2590   -5.1730   -2.1810 ho        1 LBS      0.430000
     40 H17         4.9280   -3.6620   -1.0240 h1        1 LBS      0.062700
     41 H18         6.9360   -4.7500   -1.0520 ho        1 LBS      0.415000
     42 H19         3.8360    0.3750    3.5750 h1        1 LBS      0.072700
     43 H20         5.3950   -1.2950    2.6010 ho        1 LBS      0.427000
     44 H21         3.6800    0.6430    0.6020 h1        1 LBS      0.072700
     45 H22         3.4700    2.3640    2.0580 ho        1 LBS      0.415000
@<TRIPOS>BOND
     1    1    2 1   
     2    1   24 1   
     3    2    3 1   
     4    2   25 1   
     5    2   26 1   
     6    3    4 1   
     7    3   22 1   
     8    3   27 1   
     9    4    5 1   
    10    5    6 1   
    11    5    8 1   
    12    5   20 1   
    13    6    7 1   
    14    6   28 1   
    15    6   29 1   
    16    7   30 1   
    17    8    9 1   
    18    9   10 1   
    19    9   31 1   
    20    9   32 1   
    21   10   11 1   
    22   10   18 1   
    23   10   33 1   
    24   11   12 1   
    25   12   13 1   
    26   12   14 1   
    27   12   16 1   
    28   13   34 1   
    29   14   15 1   
    30   14   35 1   
    31   14   36 1   
    32   15   37 1   
    33   16   17 1   
    34   16   18 1   
    35   16   38 1   
    36   17   39 1   
    37   18   19 1   
    38   18   40 1   
    39   19   41 1   
    40   20   21 1   
    41   20   22 1   
    42   20   42 1   
    43   21   43 1   
    44   22   23 1   
    45   22   44 1   
    46   23   45 1   
@<TRIPOS>SUBSTRUCTURE
     1 LBS         1 TEMP              0 ****  ****    0 ROOT
