@<TRIPOS>MOLECULE
molecule
   42    44     1     0     0
SMALL
bcc


@<TRIPOS>ATOM
      1 CAA          0.0000     0.0000     0.0000 ca         1 LBU      -0.094000
      2 CAB          1.3820     0.0000     0.0000 ca         1 LBU      -0.158000
      3 CAC          2.0740     0.0000     1.2020 ca         1 LBU       0.112100
      4 OAO          3.4330     0.0020     1.2050 oh         1 LBU      -0.524100
      5 CAD          1.3760    -0.0010     2.4020 ca         1 LBU      -0.158000
      6 CAE         -0.0050    -0.0020     2.3960 ca         1 LBU      -0.094000
      7 CAF         -0.6930     0.0040     1.1970 ca         1 LBU      -0.119300
      8 CAG         -2.2000     0.0030     1.1930 c3         1 LBU      -0.016100
      9 CAI         -2.7110     1.4460     1.2000 c3         1 LBU       0.148000
     10 CAR         -2.1990     2.1800    -0.0130 c          1 LBU       0.647100
     11 OAX         -1.8980     1.5660    -1.0080 o          1 LBU      -0.530000
     12 OAY         -2.0780     3.5170     0.0140 os         1 LBU      -0.410900
     13 CAZ         -1.5780     4.1570    -1.1900 c3         1 LBU       0.137700
     14 OAJ         -2.2850     2.1110     2.3930 os         1 LBU      -0.347900
     15 CAK         -3.3790     2.4980     3.0760 c          1 LBU       0.702800
     16 OAP         -3.3640     3.0920     4.1380 o          1 LBU      -0.551500
     17 CAL         -4.5860     2.0980     2.3550 ce         1 LBU      -0.001100
     18 OAQ         -5.8640     2.3290     2.7590 oh         1 LBU      -0.459100
     19 CAM         -4.2210     1.4610     1.2150 cf         1 LBU      -0.094400
     20 CAN         -5.1190     0.8950     0.1980 ca         1 LBU      -0.054800
     21 CAS         -5.1480    -0.4870    -0.0210 ca         1 LBU      -0.087500
     22 CAT         -5.9910    -1.0120    -0.9760 ca         1 LBU      -0.153000
     23 CAU         -6.8100    -0.1720    -1.7210 ca         1 LBU       0.119100
     24 OBA         -7.6380    -0.6940    -2.6620 oh         1 LBU      -0.520100
     25 CAV         -6.7840     1.2020    -1.5070 ca         1 LBU      -0.153000
     26 CAW         -5.9490     1.7360    -0.5510 ca         1 LBU      -0.087500
     27 H1          -0.5410     0.0020    -0.9390 ha         1 LBU       0.149000
     28 H2           1.9240    -0.0030    -0.9380 ha         1 LBU       0.142500
     29 H3           3.7460     0.8900     1.2480 ho         1 LBU       0.420000
     30 H4           1.9140    -0.0040     3.3420 ha         1 LBU       0.142500
     31 H5          -0.5500    -0.0000     3.3320 ha         1 LBU       0.149000
     32 H6          -2.5630    -0.5130     2.0740 hc         1 LBU       0.076700
     33 H7          -2.5590    -0.5030     0.3050 hc         1 LBU       0.076700
     34 H8          -2.1860     3.8600    -2.0360 h1         1 LBU       0.052700
     35 H9          -0.5510     3.8570    -1.3590 h1         1 LBU       0.052700
     36 H10         -1.6250     5.2330    -1.0720 h1         1 LBU       0.052700
     37 H11         -5.9480     2.1150     3.6730 ho         1 LBU       0.436000
     38 H12         -4.5110    -1.1420     0.5600 ha         1 LBU       0.141000
     39 H13         -6.0160    -2.0810    -1.1460 ha         1 LBU       0.146000
     40 H14         -8.4770    -0.8780    -2.2740 ho         1 LBU       0.423000
     41 H15         -7.4260     1.8520    -2.0900 ha         1 LBU       0.146000
     42 H16         -5.9300     2.8060    -0.3850 ha         1 LBU       0.141000
@<TRIPOS>BOND
     1    16    15 2
     2    18    17 1
     3    15    17 1
     4    15    14 1
     5    13    12 1
     6    17    19 2
     7    12    10 1
     8    14     9 1
     9    19     9 1
    10    19    20 1
    11    10     9 1
    12    10    11 2
    13     9     8 1
    14    20    26 ar
    15    20    21 ar
    16    26    25 ar
    17    21    22 ar
    18     6     5 ar
    19     6     7 ar
    20     5     3 ar
    21     8     7 1
    22    25    23 ar
    23    22    23 ar
    24     7     1 ar
    25    23    24 1
    26     3     4 1
    27     3     2 ar
    28     1     2 ar
    29     1    27 1
    30     2    28 1
    31     4    29 1
    32     5    30 1
    33     6    31 1
    34     8    32 1
    35     8    33 1
    36    13    34 1
    37    13    35 1
    38    13    36 1
    39    18    37 1
    40    21    38 1
    41    22    39 1
    42    24    40 1
    43    25    41 1
    44    26    42 1
@<TRIPOS>SUBSTRUCTURE
     1 LBU         1 TEMP              0 ****  ****    0 ROOT
