@<TRIPOS>MOLECULE
molecule
   57    60     1     0     0
SMALL
bcc


@<TRIPOS>ATOM
      1 C4           0.0000     0.0000     0.0000 ca         1 LC0      -0.064000
      2 C5          -0.0050    -0.0020     2.3960 ca         1 LC0      -0.064000
      3 C6           1.3810     0.0000     0.0000 ca         1 LC0      -0.194500
      4 C7           1.3770    -0.0020     2.4010 ca         1 LC0      -0.194500
      5 C8          -5.9530    -2.9440     1.1860 ca         1 LC0      -0.292300
      6 C10         -4.8760    -0.4390     1.1890 ca         1 LC0       0.360200
      7 C15         -0.6920    -0.0020     1.1980 ca         1 LC0      -0.135300
      8 C17         -6.7340    -1.8070     1.1860 ca         1 LC0       0.413600
      9 C20         -4.0230    -1.5290     1.1890 ca         1 LC0      -0.007200
     10 C21        -12.1130    -2.9300     1.1890 ca         1 LC0       0.447500
     11 C22        -10.3420    -4.9480     1.1790 ca         1 LC0       0.525900
     12 C1         -14.2220     1.6000     1.0620 c3         1 LC0       0.061600
     13 C2           4.0790    -0.0010     2.4790 c3         1 LC0       0.127700
     14 C3          -4.4090    -5.1860     1.1870 c3         1 LC0       0.124700
     15 C9         -14.5130    -1.9910     1.3100 cc         1 LC0       0.354200
     16 C11        -12.5290    -4.2570     1.1990 ca         1 LC0       0.264900
     17 C12        -12.8570    -0.5010     1.0910 cd         1 LC0      -0.061300
     18 C16          2.0740     0.0000     1.2030 ca         1 LC0       0.152100
     19 C18         -4.5680    -2.8150     1.1880 ca         1 LC0       0.144100
     20 C19        -13.1170    -1.8380     1.1950 cc         1 LC0      -0.385800
     21 C23         -9.9190    -3.6130     1.1800 ca         1 LC0       0.546300
     22 N25         -6.1860    -0.6070     1.1870 nb         1 LC0      -0.689000
     23 N26        -11.6360    -5.2320     1.1940 nb         1 LC0      -0.636000
     24 N27        -15.0550    -0.8030     1.2760 nd         1 LC0      -0.510800
     25 N28        -10.8130    -2.6390     1.1810 nb         1 LC0      -0.754000
     26 N29        -14.0370     0.1480     1.1390 na         1 LC0       0.069400
     27 O30          3.4330     0.0000     1.2040 os         1 LC0      -0.327900
     28 O31         -3.7650    -3.9110     1.1890 os         1 LC0      -0.304900
     29 O32         -2.6750    -1.3500     1.1920 os         1 LC0      -0.305900
     30 O33         -8.5940    -3.3200     1.1820 os         1 LC0      -0.434100
     31 H4          -0.5410     0.0000    -0.9380 ha         1 LC0       0.136500
     32 H5          -0.5490    -0.0040     3.3330 ha         1 LC0       0.136500
     33 H6           1.9230     0.0020    -0.9380 ha         1 LC0       0.141500
     34 H7           1.9160    -0.0030     3.3410 ha         1 LC0       0.141500
     35 H8          -6.4120    -3.9260     1.1850 ha         1 LC0       0.166000
     36 H10         -4.4650     0.5630     1.1900 h4         1 LC0       0.031100
     37 H13         -2.5590     0.5090     0.3100 h1         1 LC0       0.038700
     38 H13A        -2.5620     0.5070     2.0790 h1         1 LC0       0.038700
     39 H1         -13.8380     1.9620     0.1160 h1         1 LC0       0.058033
     40 H1A        -13.6870     2.0750     1.8750 h1         1 LC0       0.058033
     41 H1B        -15.2770     1.8340     1.1370 h1         1 LC0       0.058033
     42 H2           3.7900     0.8850     3.0320 h1         1 LC0       0.042367
     43 H2A          5.1540    -0.0050     2.3400 h1         1 LC0       0.042367
     44 H2B          3.7840    -0.8840     3.0330 h1         1 LC0       0.042367
     45 H3          -5.0270    -5.2780     0.3020 h1         1 LC0       0.044367
     46 H3A         -5.0290    -5.2790     2.0710 h1         1 LC0       0.044367
     47 H3B         -3.6600    -5.9690     1.1870 h1         1 LC0       0.044367
     48 H9         -15.0440    -2.9300     1.4090 h4         1 LC0       0.052100
     49 H11        -13.5860    -4.4920     1.2110 h4         1 LC0       0.032100
     50 H12        -11.8920    -0.0550     0.8800 h4         1 LC0       0.188000
     51 H14         -8.6410    -1.4600     2.0680 h1         1 LC0       0.067700
     52 H14A        -8.6390    -1.4580     0.2990 h1         1 LC0       0.067700
     53 HN24        -9.0850    -6.3630     2.0460 hn         1 LC0       0.434800
     54 HN2A        -9.0820    -6.3600     0.3130 hn         1 LC0       0.434800
     55 C13         -2.1990    -0.0020     1.1950 c3         1 LC0       0.189700
     56 C14         -8.2360    -1.9360     1.1830 c3         1 LC0       0.102100
     57 N24         -9.4030    -5.9760     1.1790 nv         1 LC0      -1.065500
@<TRIPOS>BOND
     1     1     3 ar
     2     1     7 ar
     3     2     4 ar
     4     2     7 ar
     5     3    18 ar
     6     4    18 ar
     7     5     8 ar
     8     5    19 ar
     9     6     9 ar
    10     6    22 ar
    11    55     7 1
    12    55    29 1
    13     8    56 1
    14     8    22 ar
    15     9    19 ar
    16     9    29 1
    17    10    16 ar
    18    10    20 1
    19    10    25 ar
    20    11    21 ar
    21    11    57 1
    22    11    23 ar
    23    12    26 1
    24    13    27 1
    25    14    28 1
    26    15    20 1
    27    15    24 2
    28    16    23 ar
    29    17    20 2
    30    17    26 1
    31    56    30 1
    32    18    27 1
    33    19    28 1
    34    21    25 ar
    35    21    30 1
    36    24    26 1
    37     1    31 1
    38     2    32 1
    39     3    33 1
    40     4    34 1
    41     5    35 1
    42     6    36 1
    43    55    37 1
    44    55    38 1
    45    12    39 1
    46    12    40 1
    47    12    41 1
    48    13    42 1
    49    13    43 1
    50    13    44 1
    51    14    45 1
    52    14    46 1
    53    14    47 1
    54    15    48 1
    55    16    49 1
    56    17    50 1
    57    56    51 1
    58    56    52 1
    59    57    53 1
    60    57    54 1
@<TRIPOS>SUBSTRUCTURE
     1 LC0         1 TEMP              0 ****  ****    0 ROOT
