@<TRIPOS>MOLECULE
LC0
   57    60     1     0     0
SMALL
bcc


@<TRIPOS>ATOM
      1 C4           0.0000     0.0000     0.0000 ca         1 LC0      -0.031000
      2 C5          -0.0050    -0.0020     2.3960 ca         1 LC0      -0.031000
      3 C6           1.3810     0.0000     0.0000 ca         1 LC0      -0.181500
      4 C7           1.3770    -0.0020     2.4010 ca         1 LC0      -0.181500
      5 C8          -5.9530    -2.9440     1.1860 ca         1 LC0      -0.280300
      6 C10         -4.8760    -0.4390     1.1890 ca         1 LC0       0.327200
      7 C15         -0.6920    -0.0020     1.1980 ca         1 LC0      -0.157300
      8 C17         -6.7340    -1.8070     1.1860 ca         1 LC0       0.356600
      9 C20         -4.0230    -1.5290     1.1890 ca         1 LC0      -0.001200
     10 C21        -12.1130    -2.9300     1.1890 ca         1 LC0       0.428500
     11 C22        -10.3420    -4.9480     1.1790 ca         1 LC0       0.333900
     12 C1         -14.2220     1.6000     1.0620 c3         1 LC0       0.022600
     13 C2           4.0790    -0.0010     2.4790 c3         1 LC0       0.243700
     14 C3          -4.4090    -5.1860     1.1870 c3         1 LC0       0.239700
     15 C9         -14.5130    -1.9910     1.3100 cc         1 LC0       0.415200
     16 C11        -12.5290    -4.2570     1.1990 ca         1 LC0       0.235900
     17 C12        -12.8570    -0.5010     1.0910 cd         1 LC0      -0.204300
     18 C16          2.0740     0.0000     1.2030 ca         1 LC0       0.162100
     19 C18         -4.5680    -2.8150     1.1880 ca         1 LC0       0.146100
     20 C19        -13.1170    -1.8380     1.1950 cc         1 LC0      -0.398800
     21 C23         -9.9190    -3.6130     1.1800 ca         1 LC0       0.517300
     22 N25         -6.1860    -0.6070     1.1870 nb         1 LC0      -0.572000
     23 N26        -11.6360    -5.2320     1.1940 nb         1 LC0      -0.517000
     24 N27        -15.0550    -0.8030     1.2760 nd         1 LC0      -0.650800
     25 N28        -10.8130    -2.6390     1.1810 nb         1 LC0      -0.647000
     26 N29        -14.0370     0.1480     1.1390 na         1 LC0       0.494400
     27 O30          3.4330     0.0000     1.2040 os         1 LC0      -0.306900
     28 O31         -3.7650    -3.9110     1.1890 os         1 LC0      -0.285900
     29 O32         -2.6750    -1.3500     1.1920 os         1 LC0      -0.281900
     30 O33         -8.5940    -3.3200     1.1820 os         1 LC0      -0.419100
     31 H4          -0.5410     0.0000    -0.9380 ha         1 LC0       0.106000
     32 H5          -0.5490    -0.0040     3.3330 ha         1 LC0       0.106000
     33 H6           1.9230     0.0020    -0.9380 ha         1 LC0       0.120000
     34 H7           1.9160    -0.0030     3.3410 ha         1 LC0       0.120000
     35 H8          -6.4120    -3.9260     1.1850 ha         1 LC0       0.148000
     36 H10         -4.4650     0.5630     1.1900 h4         1 LC0      -0.003900
     37 H13         -2.5590     0.5090     0.3100 h1         1 LC0       0.002700
     38 H13A        -2.5620     0.5070     2.0790 h1         1 LC0       0.002700
     39 H1         -13.8380     1.9620     0.1160 h1         1 LC0       0.023367
     40 H1A        -13.6870     2.0750     1.8750 h1         1 LC0       0.023367
     41 H1B        -15.2770     1.8340     1.1370 h1         1 LC0       0.023367
     42 H2           3.7900     0.8850     3.0320 h1         1 LC0      -0.001967
     43 H2A          5.1540    -0.0050     2.3400 h1         1 LC0      -0.001967
     44 H2B          3.7840    -0.8840     3.0330 h1         1 LC0      -0.001967
     45 H3          -5.0270    -5.2780     0.3020 h1         1 LC0      -0.000300
     46 H3A         -5.0290    -5.2790     2.0710 h1         1 LC0      -0.000300
     47 H3B         -3.6600    -5.9690     1.1870 h1         1 LC0      -0.000300
     48 H9         -15.0440    -2.9300     1.4090 h4         1 LC0       0.008100
     49 H11        -13.5860    -4.4920     1.2110 h4         1 LC0      -0.004900
     50 H12        -11.8920    -0.0550     0.8800 h4         1 LC0       0.158000
     51 H14         -8.6410    -1.4600     2.0680 h1         1 LC0       0.024200
     52 H14A        -8.6390    -1.4580     0.2990 h1         1 LC0       0.024200
     53 HN24        -9.0850    -6.3630     2.0460 hn         1 LC0       0.272800
     54 HN2A        -9.0820    -6.3600     0.3130 hn         1 LC0       0.272800
     55 C13         -2.1990    -0.0020     1.1950 c3         1 LC0       0.265700
     56 C14         -8.2360    -1.9360     1.1830 c3         1 LC0       0.172100
     57 N24         -9.4030    -5.9760     1.1790 nv         1 LC0      -0.634500
@<TRIPOS>BOND
     1     1     3 ar  
     2     1     7 ar  
     3     1    31 1   
     4     2     4 ar  
     5     2     7 ar  
     6     2    32 1   
     7     3    18 ar  
     8     3    33 1   
     9     4    18 ar  
    10     4    34 1   
    11     5     8 ar  
    12     5    19 ar  
    13     5    35 1   
    14     6     9 ar  
    15     6    22 ar  
    16     6    36 1   
    17     7    55 1   
    18     8    22 ar  
    19     8    56 1   
    20     9    19 ar  
    21     9    29 1   
    22    10    16 ar  
    23    10    20 1   
    24    10    25 ar  
    25    11    21 ar  
    26    11    23 ar  
    27    11    57 1   
    28    12    26 1   
    29    12    39 1   
    30    12    40 1   
    31    12    41 1   
    32    13    27 1   
    33    13    42 1   
    34    13    43 1   
    35    13    44 1   
    36    14    28 1   
    37    14    45 1   
    38    14    46 1   
    39    14    47 1   
    40    15    20 1   
    41    15    24 2   
    42    15    48 1   
    43    16    23 ar  
    44    16    49 1   
    45    17    20 2   
    46    17    26 1   
    47    17    50 1   
    48    18    27 1   
    49    19    28 1   
    50    21    25 ar  
    51    21    30 1   
    52    24    26 1   
    53    29    55 1   
    54    30    56 1   
    55    37    55 1   
    56    38    55 1   
    57    51    56 1   
    58    52    56 1   
    59    53    57 1   
    60    54    57 1   
@<TRIPOS>SUBSTRUCTURE
     1 LC0         1 TEMP              0 ****  ****    0 ROOT
