@<TRIPOS>MOLECULE
molecule
   27    29     1     0     0
SMALL
bcc


@<TRIPOS>ATOM
      1 CAH          0.0000     0.0000     0.0000 cc         1 LC1      -0.123400
      2 SAI          1.7620     0.0000     0.0000 ss         1 LC1      -0.125300
      3 CAR          1.7770     0.0000     1.7090 cc         1 LC1       0.449300
      4 NAQ          0.5770    -0.0000     2.1720 nd         1 LC1      -0.690000
      5 CAP         -0.4140    -0.0010     1.2870 cd         1 LC1       0.319000
      6 CAO         -1.8390    -0.0010     1.6740 cd         1 LC1       0.453800
      7 NAN         -2.3050    -0.0010     2.9620 na         1 LC1      -0.231300
      8 CAM         -3.6870     0.0000     2.8960 ca         1 LC1      -0.032200
      9 CAL         -4.6940     0.0010     3.8490 ca         1 LC1      -0.104000
     10 CAK         -6.0160     0.0020     3.4520 ca         1 LC1      -0.058000
     11 CAD         -6.3450     0.0030     2.1050 ca         1 LC1      -0.350500
     12 SAC         -8.0380     0.0040     1.6180 sy         1 LC1       1.228200
     13 OAA         -8.0790    -0.5400     0.3060 o          1 LC1      -0.521300
     14 OAJ         -8.7680    -0.5400     2.7090 o          1 LC1      -0.521300
     15 NAB         -8.5080     1.5860     1.4840 nz         1 LC1      -0.806500
     16 CAE         -5.3590     0.0030     1.1440 ca         1 LC1       0.042000
     17 CAF         -4.0140     0.0010     1.5280 ca         1 LC1       0.089400
     18 NAG         -2.8480     0.0050     0.8370 nc         1 LC1      -0.594100
     19 HAH         -0.6380    -0.0000    -0.8750 h4         1 LC1       0.205000
     20 HAR          2.6730     0.0000     2.3180 h5         1 LC1       0.078100
     21 HNAN        -1.7560    -0.1390     3.7870 hn         1 LC1       0.340700
     22 HAL         -4.4450     0.0000     4.9030 ha         1 LC1       0.160000
     23 HAK         -6.8010     0.0010     4.1970 ha         1 LC1       0.156000
     24 HNAB        -8.3930     2.0440     2.3660 hn         1 LC1       0.491467
     25 HNAA        -9.4700     1.6260     1.2100 hn         1 LC1       0.491467
     26 HAE         -5.6240     0.0030     0.0930 ha         1 LC1       0.165000
     27 HAB3        -7.9780     2.0310     0.7620 hn         1 LC1       0.491467
@<TRIPOS>BOND
     1     1     2 1
     2     1     5 2
     3     2     3 1
     4     3     4 2
     5     4     5 1
     6     5     6 1
     7     6     7 1
     8     6    18 2
     9     7     8 1
    10     8     9 ar
    11     8    17 ar
    12     9    10 ar
    13    10    11 ar
    14    11    12 1
    15    11    16 ar
    16    12    13 2
    17    12    14 2
    18    12    15 1
    19    16    17 ar
    20    17    18 1
    21     1    19 1
    22     3    20 1
    23     7    21 1
    24     9    22 1
    25    10    23 1
    26    15    24 1
    27    15    25 1
    28    16    26 1
    29    27    15 1
@<TRIPOS>SUBSTRUCTURE
     1 LC1         1 TEMP              0 ****  ****    0 ROOT
