@<TRIPOS>MOLECULE
LC2
   66    72     1     0     0
SMALL
bcc


@<TRIPOS>ATOM
      1 C1           0.0000     0.0000     0.0000 c2         1 LC2       0.422000
      2 N1          -2.8880    -0.9090     2.6280 ns         1 LC2       0.029000
      3 O1           1.3240     0.0000     0.0000 os         1 LC2      -0.277000
      4 C2           1.3200    -5.2830    -1.5880 c2         1 LC2      -0.602000
      5 O2          -0.6050     0.0060    -1.0040 o          1 LC2      -0.312000
      6 C3           1.8400    -4.0450    -1.9650 c3         1 LC2       0.193000
      7 O3          -1.8310    -7.0230    -2.8250 oh         1 LC2      -0.315000
      8 C4           2.6780    -3.3630    -0.9310 c2         1 LC2       0.036000
      9 O4           5.4430    -1.4930    -0.1990 oh         1 LC2      -0.327000
     10 C5           3.2780    -2.1510    -1.0470 c2         1 LC2      -0.209000
     11 C6           4.0470    -1.6000     0.1530 DU         1 LC2       0.234000
     12 O6          -4.9140    -0.3630     1.6390 o          1 LC2      -0.424000
     13 C7           3.6270    -0.2580     0.6840 c3         1 LC2      -0.168000
     14 O7          -4.1660    -0.8560     4.9490 o          1 LC2      -0.296000
     15 C8           2.2010     0.0000     1.1660 c3         1 LC2       0.128000
     16 C9           1.5960    -0.9420     2.2410 c3         1 LC2      -0.182000
     17 C10          0.1730    -0.5320     2.5890 c2         1 LC2       0.304000
     18 C11          2.5060    -0.9020     3.4450 c3         1 LC2      -0.109000
     19 C12         -0.7650    -0.0070     1.4640 c3         1 LC2      -0.177000
     20 C13          1.5860    -3.3070    -3.3640 c3         1 LC2      -0.105000
     21 C15         -1.1530     1.4390     1.8380 c3         1 LC2      -0.104000
     22 C16         -4.2200    -0.6230     2.6650 c2         1 LC2       0.126000
     23 C17         -4.9160    -0.6100     4.0740 c2         1 LC2       0.284000
     24 C18         -6.3690    -0.2880     4.1080 c3         1 LC2      -0.137000
     25 C23         -2.1110    -0.9130     1.3170 c3         1 LC2       0.030000
     26 C26         -1.7540    -2.3170     0.9270 c2         1 LC2      -0.316000
     27 C27         -2.0620    -2.7680    -0.3340 c3         1 LC2       0.064000
     28 C28         -1.6120    -4.0860    -0.6240 c2         1 LC2      -0.104000
     29 C29         -1.7030    -4.8350    -1.7480 c2         1 LC2      -0.136000
     30 C30         -1.0870    -6.2280    -1.8690 DU         1 LC2       0.073000
     31 C31          0.4100    -6.1110    -2.4720 DU         1 LC2      -0.032000
     32 HN1         -2.4090    -1.1210     3.4800 hn         1 LC2       0.126000
     33 H2           1.6560    -5.7830    -2.4880 DU         1 LC2       0.182000
     34 HO3         -2.2050    -7.7700    -2.3890 ho         1 LC2       0.185000
     35 H4           3.0520    -3.6400    -1.9090 DU         1 LC2       0.057000
     36 HO4          5.9350    -2.1500     0.2650 ho         1 LC2       0.191000
     37 H5           2.8380    -1.6610    -0.1870 DU         1 LC2       0.056000
     38 H6           3.9600    -2.3180     0.9600 ha         1 LC2       0.054000
     39 H7           3.8290     0.4650    -0.0960 hc         1 LC2       0.090500
     40 H7A          4.2840    -0.0300     1.5140 hc         1 LC2       0.090500
     41 H8           2.1800     1.0010     1.5800 h1         1 LC2       0.059000
     42 H9           1.5790    -1.9510     1.8460 hc         1 LC2       0.110000
     43 H11          2.7240     0.1280     3.6990 hc         1 LC2       0.055333
     44 H11A         3.4290    -1.4210     3.2180 hc         1 LC2       0.055333
     45 H11B         2.0170    -1.3840     4.2830 hc         1 LC2       0.055333
     46 H13          0.5410    -3.3970    -3.6350 hc         1 LC2       0.067667
     47 H13A         1.8480    -2.2600    -3.2730 hc         1 LC2       0.067667
     48 H13B         2.1980    -3.7670    -4.1310 hc         1 LC2       0.067667
     49 H14         -2.7010    -0.9760    -1.2640 hc         1 LC2       0.074333
     50 H14A        -2.2850    -2.2820    -2.3830 hc         1 LC2       0.074333
     51 H14B        -3.7990    -2.3480    -1.4700 hc         1 LC2       0.074333
     52 H15         -1.8940     1.8060     1.1380 hc         1 LC2       0.057667
     53 H15A        -1.5620     1.4550     2.8400 hc         1 LC2       0.057667
     54 H15B        -0.2740     2.0710     1.7970 hc         1 LC2       0.057667
     55 H18         -6.5290     0.6990     3.6910 hc         1 LC2       0.073333
     56 H18A        -6.9140    -1.0190     3.5240 hc         1 LC2       0.073333
     57 H18B        -6.7200    -0.3080     5.1320 hc         1 LC2       0.073333
     58 H23         -2.7350    -0.4850     0.5410 h1         1 LC2       0.117000
     59 H26         -1.2400    -2.9650     1.6270 ha         1 LC2       0.133000
     60 H28         -2.5830    -3.7150    -0.9290 DU         1 LC2       0.102000
     61 H29         -2.1100    -5.7060    -1.2500 DU         1 LC2       0.106000
     62 H30         -1.0680    -6.7190    -0.9030 ha         1 LC2       0.083000
     63 H31          0.8270    -7.1050    -2.5720 ha         1 LC2       0.034500
     64 H31A         0.3590    -5.6510    -3.4520 ha         1 LC2       0.034500
     65 O5          -0.2580    -0.5850     3.6790 o          1 LC2      -0.282000
     66 C14         -2.7600    -2.0440    -1.4390 c3         1 LC2      -0.101000
@<TRIPOS>BOND
     1     1     3 1   
     2     1     5 1   
     3     1    19 1   
     4     2    22 1   
     5     2    25 1   
     6     2    32 1   
     7     3    15 1   
     8     4     6 1   
     9     4    31 1   
    10     4    33 1   
    11     6     8 1   
    12     6    20 1   
    13     6    35 1   
    14     7    30 1   
    15     7    34 1   
    16     8    10 1   
    17     8    35 1   
    18     9    11 1   
    19     9    36 1   
    20    10    11 1   
    21    10    37 1   
    22    11    13 1   
    23    11    37 1   
    24    11    38 1   
    25    12    22 1   
    26    13    15 1   
    27    13    39 1   
    28    13    40 1   
    29    14    23 1   
    30    15    16 1   
    31    15    41 1   
    32    16    17 1   
    33    16    18 1   
    34    16    42 1   
    35    17    19 1   
    36    17    65 1   
    37    18    43 1   
    38    18    44 1   
    39    18    45 1   
    40    19    21 1   
    41    19    25 1   
    42    20    46 1   
    43    20    47 1   
    44    20    48 1   
    45    21    52 1   
    46    21    53 1   
    47    21    54 1   
    48    22    23 1   
    49    23    24 1   
    50    24    55 1   
    51    24    56 1   
    52    24    57 1   
    53    25    26 1   
    54    25    58 1   
    55    26    27 1   
    56    26    59 1   
    57    27    28 1   
    58    27    60 1   
    59    27    66 1   
    60    28    29 1   
    61    28    60 1   
    62    29    30 1   
    63    29    61 1   
    64    30    31 1   
    65    30    61 1   
    66    30    62 1   
    67    31    33 1   
    68    31    63 1   
    69    31    64 1   
    70    49    66 1   
    71    50    66 1   
    72    51    66 1   
@<TRIPOS>SUBSTRUCTURE
     1 LC2         1 TEMP              0 ****  ****    0 ROOT
