@<TRIPOS>MOLECULE
molecule
   66    67     1     0     0
SMALL
bcc


@<TRIPOS>ATOM
      1 C1           0.0000     0.0000     0.0000 c          1 LC2       0.779600
      2 N1          -2.8880    -0.9090     2.6280 ns         1 LC2      -0.569900
      3 O1           1.3240     0.0000     0.0000 os         1 LC2      -0.448900
      4 C2           1.3200    -5.2830    -1.5880 c2         1 LC2      -0.184200
      5 O2          -0.6050     0.0060    -1.0040 o          1 LC2      -0.560500
      6 C3           1.8400    -4.0450    -1.9650 ce         1 LC2      -0.074200
      7 O3          -1.8310    -7.0230    -2.8250 oh         1 LC2      -0.604800
      8 C4           2.6780    -3.3630    -0.9310 ce         1 LC2      -0.132000
      9 O4           5.4430    -1.4930    -0.1990 oh         1 LC2      -0.605800
     10 C5           3.2780    -2.1510    -1.0470 c2         1 LC2      -0.159200
     11 C6           4.0470    -1.6000     0.1530 c3         1 LC2       0.195300
     12 O6          -4.9140    -0.3630     1.6390 o          1 LC2      -0.630100
     13 C7           3.6270    -0.2580     0.6840 c3         1 LC2      -0.080400
     14 O7          -4.1660    -0.8560     4.9490 o          1 LC2      -0.486100
     15 C8           2.2010     0.0000     1.1660 c3         1 LC2       0.206100
     16 C9           1.5960    -0.9420     2.2410 c3         1 LC2      -0.204700
     17 C10          0.1730    -0.5320     2.5890 c          1 LC2       0.618100
     18 C11          2.5060    -0.9020     3.4450 c3         1 LC2      -0.090100
     19 C12         -0.7650    -0.0070     1.4640 c3         1 LC2      -0.261000
     20 C13          1.5860    -3.3070    -3.3640 c3         1 LC2      -0.037900
     21 C15         -1.1530     1.4390     1.8380 c3         1 LC2      -0.083100
     22 C16         -4.2200    -0.6230     2.6650 c          1 LC2       0.509100
     23 C17         -4.9160    -0.6100     4.0740 c          1 LC2       0.533100
     24 C18         -6.3690    -0.2880     4.1080 c3         1 LC2      -0.171100
     25 C23         -2.1110    -0.9130     1.3170 c3         1 LC2       0.131900
     26 C26         -1.7540    -2.3170     0.9270 c2         1 LC2      -0.508200
     27 C27         -2.0620    -2.7680    -0.3340 ce         1 LC2       0.129800
     28 C28         -1.6120    -4.0860    -0.6240 ce         1 LC2      -0.175000
     29 C29         -1.7030    -4.8350    -1.7480 c2         1 LC2      -0.107200
     30 C30         -1.0870    -6.2280    -1.8690 c3         1 LC2       0.177300
     31 C31          0.4100    -6.1110    -2.4720 c3         1 LC2      -0.043200
     32 HN1         -2.4110    -1.1300     3.4790 hn         1 LC2       0.361500
     33 H2           1.5480    -5.6630    -0.5990 ha         1 LC2       0.125000
     34 HO3         -2.1600    -7.7980    -2.4010 ho         1 LC2       0.404000
     35 H4           2.7800    -3.8800     0.0150 ha         1 LC2       0.112000
     36 HO4          5.9350    -2.1500     0.2650 ho         1 LC2       0.403000
     37 H5           3.1770    -1.5700    -1.9560 ha         1 LC2       0.148000
     38 H6           3.9600    -2.3180     0.9600 h1         1 LC2       0.022700
     39 H7           4.2840    -0.0290     1.5140 hc         1 LC2       0.070200
     40 H7A          3.8290     0.4650    -0.0960 hc         1 LC2       0.070200
     41 H8           2.1800     1.0010     1.5800 h1         1 LC2       0.048700
     42 H9           1.5790    -1.9510     1.8460 hc         1 LC2       0.103700
     43 H11          3.2140    -1.7200     3.3900 hc         1 LC2       0.048700
     44 H11A         3.0420     0.0390     3.4620 hc         1 LC2       0.048700
     45 H11B         1.9140    -0.9960     4.3480 hc         1 LC2       0.048700
     46 H13          0.7850    -2.5870    -3.2530 hc         1 LC2       0.046367
     47 H13A         1.3120    -4.0400    -4.1140 hc         1 LC2       0.046367
     48 H13B         2.4900    -2.7970    -3.6730 hc         1 LC2       0.046367
     49 H14         -3.6470    -2.5940    -1.7280 hc         1 LC2       0.066033
     50 H14A        -2.0950    -1.9580    -2.2900 hc         1 LC2       0.066033
     51 H14B        -3.0420    -1.0550    -1.1000 hc         1 LC2       0.066033
     52 H15         -1.9810     1.7620     1.2180 hc         1 LC2       0.051700
     53 H15A        -1.4450     1.4770     2.8800 hc         1 LC2       0.051700
     54 H15B        -0.3050     2.0930     1.6770 hc         1 LC2       0.051700
     55 H18         -6.5320     0.6890     3.6670 hc         1 LC2       0.075700
     56 H18A        -6.7140    -0.2830     5.1340 hc         1 LC2       0.075700
     57 H18B        -6.9170    -1.0340     3.5450 hc         1 LC2       0.075700
     58 H23         -2.7350    -0.4850     0.5410 h1         1 LC2       0.084700
     59 H26         -2.7440    -2.0120     1.2450 ha         1 LC2       0.296000
     60 H28         -1.0730    -4.5420     0.1980 ha         1 LC2       0.140000
     61 H29         -2.1950    -4.4140    -2.6170 ha         1 LC2       0.135000
     62 H30         -1.0680    -6.7190    -0.9030 h1         1 LC2       0.049700
     63 H31          0.8270    -7.1050    -2.5720 hc         1 LC2       0.058700
     64 H31A         0.3590    -5.6500    -3.4510 hc         1 LC2       0.058700
     65 O5          -0.2580    -0.5850     3.6790 o          1 LC2      -0.499100
     66 C14         -2.7600    -2.0440    -1.4390 c3         1 LC2      -0.125900
@<TRIPOS>BOND
     1     1     3 1
     2     1     5 2
     3     1    19 1
     4     2    22 1
     5     2    25 1
     6     3    15 1
     7     4     6 2
     8     4    31 1
     9     6     8 1
    10     6    20 1
    11     7    30 1
    12     8    10 2
    13     9    11 1
    14    10    11 1
    15    65    17 2
    16    11    13 1
    17    12    22 2
    18    13    15 1
    19    14    23 2
    20    15    16 1
    21    16    17 1
    22    16    18 1
    23    17    19 1
    24    19    21 1
    25    19    25 1
    26    66    27 1
    27    22    23 1
    28    23    24 1
    29    25    26 1
    30    26    27 2
    31    27    28 1
    32    28    29 2
    33    29    30 1
    34    30    31 1
    35     2    32 1
    36     4    33 1
    37     7    34 1
    38     8    35 1
    39     9    36 1
    40    10    37 1
    41    11    38 1
    42    13    39 1
    43    13    40 1
    44    15    41 1
    45    16    42 1
    46    18    43 1
    47    18    44 1
    48    18    45 1
    49    20    46 1
    50    20    47 1
    51    20    48 1
    52    66    49 1
    53    66    50 1
    54    66    51 1
    55    21    52 1
    56    21    53 1
    57    21    54 1
    58    24    55 1
    59    24    56 1
    60    24    57 1
    61    25    58 1
    62    26    59 1
    63    28    60 1
    64    29    61 1
    65    30    62 1
    66    31    63 1
    67    31    64 1
@<TRIPOS>SUBSTRUCTURE
     1 LC2         1 TEMP              0 ****  ****    0 ROOT
