@<TRIPOS>MOLECULE
molecule
   55    59     1     0     0
SMALL
bcc


@<TRIPOS>ATOM
      1 C1           0.0000     0.0000     0.0000 ca         1 LC3      -0.089600
      2 C2           1.3990     0.0000     0.0000 ca         1 LC3      -0.110500
      3 C3          -0.6990     0.0000     1.2120 ca         1 LC3      -0.110500
      4 C4          -0.7370     0.0060    -1.2770 c          1 LC3       0.884200
      5 C5           2.0820     0.0000     1.1820 ca         1 LC3      -0.116000
      6 C6          -0.0150     0.0000     2.3940 ca         1 LC3      -0.116000
      7 O7          -1.9530     0.0110    -1.2760 o          1 LC3      -0.846800
      8 O8          -0.0640     0.0060    -2.4440 o          1 LC3      -0.846800
      9 C9           1.3830     0.0000     2.3940 ca         1 LC3      -0.086000
     10 C10          3.6000     1.0910     5.2140 cc         1 LC3      -0.149000
     11 C11          2.8930     1.0740     4.0070 cc         1 LC3      -0.202000
     12 C12          2.1220     0.0010     3.6710 cd         1 LC3       0.086700
     13 N13          2.0260    -1.0830     4.5160 na         1 LC3       0.256000
     14 C14          2.7150    -1.0780     5.7040 cc         1 LC3      -0.120300
     15 C15          3.5140     0.0240     6.0590 cc         1 LC3      -0.119000
     16 N16          1.3700    -2.1870     4.4110 nc         1 LC3      -0.532100
     17 C17          1.5650    -2.9590     5.4670 cd         1 LC3       0.374600
     18 C18          2.4320    -2.2810     6.3370 cd         1 LC3      -0.293800
     19 C19          0.9740    -4.2950     5.6900 c          1 LC3       0.827300
     20 C20          2.9460    -2.7580     7.6700 c3         1 LC3       0.019800
     21 C21          4.2530    -3.5290     7.4670 c3         1 LC3      -0.073400
     22 C22          4.7750    -4.0120     8.8220 c3         1 LC3       0.130400
     23 O23          5.9960    -4.7320     8.6320 os         1 LC3      -0.320900
     24 O24          1.2300    -4.9090     6.7060 o          1 LC3      -0.825300
     25 O25          0.1530    -4.8310     4.7670 o          1 LC3      -0.825300
     26 C26          6.5950    -5.2330     9.7430 ca         1 LC3       0.184100
     27 C27          6.0300    -5.0450    10.9730 ca         1 LC3      -0.251000
     28 C28          6.6330    -5.5520    12.1220 ca         1 LC3      -0.074000
     29 C29          7.8010    -6.2480    12.0540 ca         1 LC3      -0.187000
     30 C30          8.4140    -6.4630    10.8080 ca         1 LC3       0.001000
     31 C31          7.8020    -5.9550     9.6350 ca         1 LC3      -0.062000
     32 C32          9.6190    -7.1770    10.7000 ca         1 LC3      -0.142000
     33 C33         10.1840    -7.3650     9.4760 ca         1 LC3      -0.117000
     34 C34          9.5850    -6.8600     8.3250 ca         1 LC3      -0.160000
     35 C35          8.4110    -6.1740     8.3890 ca         1 LC3      -0.072000
     36 H1           1.9410    -0.0000    -0.9380 ha         1 LC3       0.147000
     37 H2          -1.7820     0.0000     1.2130 ha         1 LC3       0.147000
     38 H3           3.1650     0.0000     1.1820 ha         1 LC3       0.115000
     39 H4          -0.5560     0.0000     3.3330 ha         1 LC3       0.115000
     40 H8           4.0570     0.0250     6.9970 ha         1 LC3       0.121000
     41 H9           2.2110    -3.4090     8.1290 hc         1 LC3       0.047700
     42 H10          3.1260    -1.9060     8.3140 hc         1 LC3       0.047700
     43 H11          4.0730    -4.3820     6.8240 hc         1 LC3       0.063200
     44 H12          4.9880    -2.8790     7.0080 hc         1 LC3       0.063200
     45 H13          4.9560    -3.1590     9.4650 h1         1 LC3       0.035200
     46 H14          4.0400    -4.6610     9.2820 h1         1 LC3       0.035200
     47 H16          5.1010    -4.4950    11.0570 ha         1 LC3       0.144000
     48 H17          6.1650    -5.3890    13.0850 ha         1 LC3       0.118000
     49 H18          8.2560    -6.6350    12.9570 ha         1 LC3       0.119000
     50 H19         10.0960    -7.5760    11.5870 ha         1 LC3       0.121000
     51 H20         11.1190    -7.9070     9.3970 ha         1 LC3       0.114000
     52 H21         10.0560    -7.0230     7.3630 ha         1 LC3       0.124000
     53 H22          7.9560    -5.7860     7.4850 ha         1 LC3       0.157000
     54 H6           4.2110     1.9460     5.4760 ha         1 LC3       0.109000
     55 H7           2.9590     1.9200     3.3330 ha         1 LC3       0.140000
@<TRIPOS>BOND
     1     7     4 1
     2     8     4 1
     3     4     1 1
     4     1     3 ar
     5     1     2 ar
     6     3     6 ar
     7     2     5 ar
     8     6     9 ar
     9    24    19 1
    10     5     9 ar
    11     9    12 1
    12    19    25 1
    13    19    17 1
    14    16    17 2
    15    16    13 1
    16    12    13 1
    17    12    11 2
    18    17    18 1
    19    13    14 1
    20    11    10 1
    21    18    14 2
    22    18    20 1
    23    14    15 1
    24    10    15 2
    25    20    21 1
    26    21    22 1
    27    22    23 1
    28    23    26 1
    29    27    26 ar
    30    27    28 ar
    31    26    31 ar
    32    28    29 ar
    33    31    35 ar
    34    31    30 ar
    35    35    34 ar
    36    29    30 ar
    37    30    32 ar
    38    34    33 ar
    39    32    33 ar
    40     2    36 1
    41     3    37 1
    42     5    38 1
    43     6    39 1
    44    10    54 1
    45    11    55 1
    46    15    40 1
    47    20    41 1
    48    20    42 1
    49    21    43 1
    50    21    44 1
    51    22    45 1
    52    22    46 1
    53    27    47 1
    54    28    48 1
    55    29    49 1
    56    32    50 1
    57    33    51 1
    58    34    52 1
    59    35    53 1
@<TRIPOS>SUBSTRUCTURE
     1 LC3         1 TEMP              0 ****  ****    0 ROOT
