@<TRIPOS>MOLECULE
LC3
   55    59     1     0     0
SMALL
bcc


@<TRIPOS>ATOM
      1 C1         -0.3430    0.6260    0.3260 ca        1 LC3     -0.109600
      2 C2          0.9340    0.1970   -0.0570 ca        1 LC3     -0.122500
      3 C3         -0.6890    0.5850    1.6790 ca        1 LC3     -0.122500
      4 C4         -1.3150    1.1430   -0.7200 c         1 LC3      0.905200
      5 C5          1.8550   -0.2220    0.8960 ca        1 LC3     -0.121500
      6 C6          0.2270    0.1610    2.6430 ca        1 LC3     -0.121500
      7 O7         -2.4290    1.6000   -0.3340 o         1 LC3     -0.840300
      8 O8         -0.9610    1.1070   -1.9350 o         1 LC3     -0.840300
      9 C9          1.5170   -0.2220    2.2610 ca        1 LC3     -0.082000
     10 C10         4.9000   -0.2370    3.9570 cc        1 LC3     -0.121000
     11 C11         3.8300    0.0210    3.0630 cc        1 LC3     -0.237000
     12 C12         2.5700   -0.5410    3.2360 cd        1 LC3      0.108700
     13 N13         2.3540   -1.3790    4.3290 na        1 LC3      0.183000
     14 C14         3.4370   -1.6480    5.2400 cd        1 LC3     -0.056300
     15 C15         4.7140   -1.0600    5.0330 cd        1 LC3     -0.144000
     16 N16         1.2280   -2.0300    4.7000 nd        1 LC3     -0.545100
     17 C17         1.5240   -2.7240    5.8310 cc        1 LC3      0.365600
     18 C18         2.9110   -2.5180    6.2130 cc        1 LC3     -0.301800
     19 C19         0.5500   -3.5950    6.6180 c         1 LC3      0.858300
     20 C20         3.5940   -3.0950    7.3750 c3        1 LC3      0.025800
     21 C21         3.7580   -4.5980    7.2310 c3        1 LC3     -0.109400
     22 C22         4.1560   -5.2620    8.5310 c3        1 LC3      0.134400
     23 O23         5.5820   -5.0800    8.6750 os        1 LC3     -0.331900
     24 O24         0.6730   -4.8470    6.5030 o         1 LC3     -0.819800
     25 O25        -0.2720   -3.0190    7.3760 o         1 LC3     -0.819800
     26 C26         6.1540   -5.6150    9.7980 ca        1 LC3      0.176100
     27 C27         5.4680   -6.3040   10.7840 ca        1 LC3     -0.242000
     28 C28         6.1690   -6.8150   11.8980 ca        1 LC3     -0.077000
     29 C29         7.5250   -6.6440   12.0240 ca        1 LC3     -0.188000
     30 C30         8.2540   -5.9400   11.0270 ca        1 LC3     -0.005000
     31 C31         7.5750   -5.4150    9.9000 ca        1 LC3     -0.066000
     32 C32         9.6590   -5.7460   11.1320 ca        1 LC3     -0.144000
     33 C33        10.3450   -5.0610   10.1590 ca        1 LC3     -0.121000
     34 C34         9.6640   -4.5370    9.0360 ca        1 LC3     -0.162000
     35 C35         8.3060   -4.7100    8.9080 ca        1 LC3     -0.074000
     36 H1          1.1880    0.2060   -1.1290 ha        1 LC3      0.147500
     37 H2         -1.7040    0.9030    1.9690 ha        1 LC3      0.147500
     38 H3          2.8560   -0.5560    0.5860 ha        1 LC3      0.125000
     39 H4         -0.0690    0.1330    3.7030 ha        1 LC3      0.125000
     40 H8          5.5090   -1.2920    5.7520 ha        1 LC3      0.127000
     41 H9          2.9850   -2.8770    8.2960 hc        1 LC3      0.032700
     42 H10         4.6010   -2.6180    7.5140 hc        1 LC3      0.032700
     43 H11         2.7650   -5.0370    6.9070 hc        1 LC3      0.093200
     44 H12         4.5170   -4.8260    6.4400 hc        1 LC3      0.093200
     45 H13         3.6380   -4.7970    9.4100 h1        1 LC3      0.040700
     46 H14         3.9420   -6.3630    8.5000 h1        1 LC3      0.040700
     47 H16         4.3830   -6.4600   10.7200 ha        1 LC3      0.149000
     48 H17         5.6010   -7.3580   12.6690 ha        1 LC3      0.121000
     49 H18         8.0680   -7.0430   12.8910 ha        1 LC3      0.119000
     50 H19        10.1810   -6.1550   12.0080 ha        1 LC3      0.120000
     51 H20        11.4310   -4.9110   10.2420 ha        1 LC3      0.117000
     52 H21        10.2320   -3.9910    8.2700 ha        1 LC3      0.127000
     53 H22         7.7550   -4.3080    8.0410 ha        1 LC3      0.160000
     54 H6          5.8720    0.2370    3.7660 ha        1 LC3      0.109000
     55 H7          3.9920    0.6920    2.2080 ha        1 LC3      0.139000
@<TRIPOS>BOND
     1    1    2 ar  
     2    1    3 ar  
     3    1    4 1   
     4    2    5 ar  
     5    2   36 1   
     6    3    6 ar  
     7    3   37 1   
     8    4    7 1   
     9    4    8 1   
    10    5    9 ar  
    11    5   38 1   
    12    6    9 ar  
    13    6   39 1   
    14    9   12 1   
    15   10   11 1   
    16   10   15 2   
    17   10   54 1   
    18   11   12 2   
    19   11   55 1   
    20   12   13 1   
    21   13   14 1   
    22   13   16 1   
    23   14   15 1   
    24   14   18 2   
    25   15   40 1   
    26   16   17 2   
    27   17   18 1   
    28   17   19 1   
    29   18   20 1   
    30   19   24 1   
    31   19   25 1   
    32   20   21 1   
    33   20   41 1   
    34   20   42 1   
    35   21   22 1   
    36   21   43 1   
    37   21   44 1   
    38   22   23 1   
    39   22   45 1   
    40   22   46 1   
    41   23   26 1   
    42   26   27 ar  
    43   26   31 ar  
    44   27   28 ar  
    45   27   47 1   
    46   28   29 ar  
    47   28   48 1   
    48   29   30 ar  
    49   29   49 1   
    50   30   31 ar  
    51   30   32 ar  
    52   31   35 ar  
    53   32   33 ar  
    54   32   50 1   
    55   33   34 ar  
    56   33   51 1   
    57   34   35 ar  
    58   34   52 1   
    59   35   53 1   
@<TRIPOS>SUBSTRUCTURE
     1 LC3         1 TEMP              0 ****  ****    0 ROOT
