@<TRIPOS>MOLECULE
LC4
   44    44     1     0     0
SMALL
bcc


@<TRIPOS>ATOM
      1 O1          0.3970    1.1080    0.1210 o         1 LC4     -0.852800
      2 C2          1.2750    0.2000    0.0470 c         1 LC4      0.907600
      3 O17         1.6070   -0.5390    1.0190 o         1 LC4     -0.852800
      4 C3          2.0050   -0.0100   -1.2920 c3        1 LC4     -0.194400
      5 C4          1.0350   -0.0250   -2.4480 c3        1 LC4     -0.065400
      6 C5          1.7490   -0.0340   -3.7840 c3        1 LC4     -0.078400
      7 C6          0.7680   -0.0650   -4.9360 c3        1 LC4     -0.079400
      8 C7          1.4810   -0.0550   -6.2720 c3        1 LC4     -0.078400
      9 C18         0.4990   -0.0840   -7.4230 c3        1 LC4     -0.079400
     10 C19         1.2140   -0.0630   -8.7570 c3        1 LC4     -0.079400
     11 C8          0.2340   -0.0880   -9.9100 c3        1 LC4     -0.078400
     12 C9          0.9540   -0.0560  -11.2410 c3        1 LC4     -0.079400
     13 C10        -0.0270   -0.0750  -12.3930 c3        1 LC4     -0.101400
     14 C11         0.7360   -0.0310  -13.7190 c3        1 LC4      0.037300
     15 N12        -0.0900   -0.0240  -14.8900 na        1 LC4     -0.202900
     16 C13        -0.7750    1.0740  -15.4190 cc        1 LC4     -0.255600
     17 C14        -1.4820    0.5930  -16.5370 cd        1 LC4      0.283200
     18 N15        -1.2530   -0.7720  -16.6980 nd        1 LC4     -0.673000
     19 C16        -0.4210   -1.1270  -15.6940 cc        1 LC4      0.384400
     20 H3          2.5820   -0.9670   -1.2540 hc        1 LC4      0.018700
     21 H3A         2.7360    0.8290   -1.4170 hc        1 LC4      0.018700
     22 H4          0.3750   -0.9280   -2.3700 hc        1 LC4      0.044200
     23 H4A         0.3710    0.8770   -2.3710 hc        1 LC4      0.044200
     24 H5          2.3970    0.8780   -3.8690 hc        1 LC4      0.025700
     25 H5A         2.4260   -0.9260   -3.8440 hc        1 LC4      0.025700
     26 H6          0.1270   -0.9820   -4.8590 hc        1 LC4      0.036700
     27 H6A         0.0840    0.8220   -4.8680 hc        1 LC4      0.036700
     28 H7          2.1220    0.8630   -6.3480 hc        1 LC4      0.034200
     29 H7A         2.1640   -0.9420   -6.3390 hc        1 LC4      0.034200
     30 H18        -0.1380   -1.0040   -7.3520 hc        1 LC4      0.039200
     31 H18A       -0.1890    0.8000   -7.3520 hc        1 LC4      0.039200
     32 H19         1.9010   -0.9480   -8.8280 hc        1 LC4      0.037700
     33 H19A        1.8530    0.8570   -8.8260 hc        1 LC4      0.037700
     34 H8         -0.4580    0.7930   -9.8340 hc        1 LC4      0.041700
     35 H8A        -0.4000   -1.0120   -9.8460 hc        1 LC4      0.041700
     36 H9          1.6430   -0.9380  -11.3150 hc        1 LC4      0.040700
     37 H9A         1.5900    0.8670  -11.3000 hc        1 LC4      0.040700
     38 H10        -0.7190    0.8040  -12.3190 hc        1 LC4      0.054700
     39 H10A       -0.6560   -1.0010  -12.3410 hc        1 LC4      0.054700
     40 H11         1.3770    0.8980  -13.7370 h1        1 LC4      0.059200
     41 H11A        1.4170   -0.9280  -13.7780 h1        1 LC4      0.059200
     42 H13        -0.7070    2.0670  -14.9830 h4        1 LC4      0.176000
     43 H14        -2.1270    1.1470  -17.2170 h4        1 LC4      0.038100
     44 H16        -0.0270   -2.1300  -15.5100 h5        1 LC4      0.058100
@<TRIPOS>BOND
     1    1    2 1   
     2    2    3 1   
     3    2    4 1   
     4    4    5 1   
     5    4   20 1   
     6    4   21 1   
     7    5    6 1   
     8    5   22 1   
     9    5   23 1   
    10    6    7 1   
    11    6   24 1   
    12    6   25 1   
    13    7    8 1   
    14    7   26 1   
    15    7   27 1   
    16    8    9 1   
    17    8   28 1   
    18    8   29 1   
    19    9   10 1   
    20    9   30 1   
    21    9   31 1   
    22   10   11 1   
    23   10   32 1   
    24   10   33 1   
    25   11   12 1   
    26   11   34 1   
    27   11   35 1   
    28   12   13 1   
    29   12   36 1   
    30   12   37 1   
    31   13   14 1   
    32   13   38 1   
    33   13   39 1   
    34   14   15 1   
    35   14   40 1   
    36   14   41 1   
    37   15   16 1   
    38   15   19 1   
    39   16   17 2   
    40   16   42 1   
    41   17   18 1   
    42   17   43 1   
    43   18   19 2   
    44   19   44 1   
@<TRIPOS>SUBSTRUCTURE
     1 LC4         1 TEMP              0 ****  ****    0 ROOT
