@<TRIPOS>MOLECULE
molecule
   44    44     1     0     0
SMALL
bcc


@<TRIPOS>ATOM
      1 O1           0.0000     0.0000     0.0000 o          1 LC4      -0.858300
      2 C2           1.2090     0.0000     0.0000 c          1 LC4       0.890600
      3 O17          1.8800     0.0000     1.1620 o          1 LC4      -0.858300
      4 C3           1.9620    -0.0040    -1.3050 c3         1 LC4      -0.182400
      5 C4           0.9680    -0.0100    -2.4680 c3         1 LC4      -0.063400
      6 C5           1.7340    -0.0140    -3.7930 c3         1 LC4      -0.088400
      7 C6           0.7400    -0.0200    -4.9560 c3         1 LC4      -0.081400
      8 C7           1.5040    -0.0260    -6.2810 c3         1 LC4      -0.083400
      9 C18          0.5100    -0.0310    -7.4440 c3         1 LC4      -0.082400
     10 C19          1.2750    -0.0360    -8.7690 c3         1 LC4      -0.082400
     11 C8           0.2810    -0.0410    -9.9320 c3         1 LC4      -0.080400
     12 C9           1.0470    -0.0460   -11.2570 c3         1 LC4      -0.082400
     13 C10          0.0520    -0.0510   -12.4200 c3         1 LC4      -0.103400
     14 C11          0.8170    -0.0560   -13.7450 c3         1 LC4       0.039300
     15 N12         -0.1350    -0.0620   -14.8590 na         1 LC4      -0.184900
     16 C13         -0.6630     1.0370   -15.4800 cc         1 LC4      -0.277600
     17 C14         -1.4880     0.5810   -16.4430 cd         1 LC4       0.304200
     18 N15         -1.4630    -0.7600   -16.4100 nd         1 LC4      -0.703000
     19 C16         -0.6500    -1.1520   -15.4670 cc         1 LC4       0.392400
     20 H3           2.5870    -0.8880    -1.3590 hc         1 LC4       0.026700
     21 H3A          2.5840     0.8810    -1.3660 hc         1 LC4       0.026700
     22 H4           0.3470    -0.8950    -2.4080 hc         1 LC4       0.044700
     23 H4A          0.3440     0.8740    -2.4150 hc         1 LC4       0.044700
     24 H5           2.3580    -0.8980    -3.8470 hc         1 LC4       0.028700
     25 H5A          2.3550     0.8710    -3.8540 hc         1 LC4       0.028700
     26 H6           0.1160     0.8640    -4.9030 hc         1 LC4       0.038700
     27 H6A          0.1180    -0.9050    -4.8950 hc         1 LC4       0.038700
     28 H7           2.1270    -0.9100    -6.3350 hc         1 LC4       0.036700
     29 H7A          2.1270     0.8590    -6.3420 hc         1 LC4       0.036700
     30 H18         -0.1130     0.8540    -7.3910 hc         1 LC4       0.040700
     31 H18A        -0.1130    -0.9150    -7.3830 hc         1 LC4       0.040700
     32 H19          1.8980     0.8490    -8.8300 hc         1 LC4       0.039700
     33 H19A         1.8990    -0.9200    -8.8230 hc         1 LC4       0.039700
     34 H8          -0.3420     0.8440    -9.8790 hc         1 LC4       0.043700
     35 H8A         -0.3410    -0.9250    -9.8710 hc         1 LC4       0.043700
     36 H9           1.6690     0.8380   -11.3180 hc         1 LC4       0.041700
     37 H9A          1.6700    -0.9310   -11.3110 hc         1 LC4       0.041700
     38 H10         -0.5700    -0.9360   -12.3590 hc         1 LC4       0.055200
     39 H10A        -0.5710     0.8330   -12.3660 hc         1 LC4       0.055200
     40 H11          1.4400    -0.9410   -13.7980 h1         1 LC4       0.061200
     41 H11A         1.4390     0.8280   -13.8060 h1         1 LC4       0.061200
     42 H13         -0.4580     2.0740   -15.2430 h4         1 LC4       0.171000
     43 H14         -2.0700     1.1910   -17.1230 h4         1 LC4       0.037100
     44 H16         -0.4310    -2.1810   -15.2100 h5         1 LC4       0.062100
@<TRIPOS>BOND
     1     1     2 1
     2     2     4 1
     3     2     3 1
     4     5     4 1
     5     4    20 1
     6     4    21 1
     7     5     6 1
     8     5    22 1
     9     5    23 1
    10     6     7 1
    11     6    24 1
    12     6    25 1
    13     7     8 1
    14     7    26 1
    15     7    27 1
    16     8     9 1
    17     8    28 1
    18     8    29 1
    19     9    10 1
    20     9    30 1
    21     9    31 1
    22    10    11 1
    23    10    32 1
    24    10    33 1
    25    11    12 1
    26    11    34 1
    27    11    35 1
    28    12    13 1
    29    12    36 1
    30    12    37 1
    31    13    14 1
    32    13    38 1
    33    13    39 1
    34    14    15 1
    35    14    40 1
    36    14    41 1
    37    15    16 1
    38    15    19 1
    39    16    17 2
    40    16    42 1
    41    17    18 1
    42    17    43 1
    43    19    18 2
    44    19    44 1
@<TRIPOS>SUBSTRUCTURE
     1 LC4         1 TEMP              0 ****  ****    0 ROOT
