@<TRIPOS>MOLECULE
molecule
   47    48     1     0     0
SMALL
bcc


@<TRIPOS>ATOM
      1 O12          0.0000     0.0000     0.0000 o          1 LC5      -0.633100
      2 C4           1.2120     0.0000     0.0000 c          1 LC5       0.696100
      3 N9           1.8870     0.0000     1.1670 n          1 LC5      -0.390300
      4 O10          3.3030     0.0000     1.1680 oh         1 LC5      -0.356100
      5 C11          1.1540    -0.0010     2.4360 c3         1 LC5       0.095300
      6 C3           1.9670    -0.0050    -1.3040 c3         1 LC5      -0.158400
      7 C2           0.9760    -0.1110    -2.4660 c3         1 LC5      -0.015700
      8 C1           1.7440    -0.2840    -3.7780 c3         1 LC5      -0.252600
      9 P5           2.3690    -1.9920    -3.8950 p5         1 LC5       1.051700
     10 O6           3.0970    -2.2010    -5.3160 o          1 LC5      -0.912500
     11 O7           3.4240    -2.2610    -2.7080 o          1 LC5      -0.912500
     12 O8           1.2410    -2.9410    -3.7760 o          1 LC5      -0.912500
     13 C13          0.1310     1.1620    -2.5330 c3         1 LC5      -0.087400
     14 C14         -0.9420     1.0060    -3.6130 c3         1 LC5      -0.070400
     15 C15         -1.7870     2.2800    -3.6810 c3         1 LC5      -0.048100
     16 C16         -2.8440     2.1260    -4.7440 ca         1 LC5      -0.027300
     17 C17         -4.0630     1.4950    -4.4420 ca         1 LC5      -0.006000
     18 C23         -4.3280     0.9980    -3.1550 ca         1 LC5      -0.078000
     19 C25         -5.5210     0.3940    -2.8990 ca         1 LC5      -0.181000
     20 C24         -6.4860     0.2620    -3.8950 ca         1 LC5      -0.153000
     21 C22         -6.2650     0.7310    -5.1540 ca         1 LC5      -0.135000
     22 C19         -5.0450     1.3610    -5.4560 ca         1 LC5      -0.009000
     23 C21         -4.7800     1.8590    -6.7420 ca         1 LC5      -0.150000
     24 C20         -3.5880     2.4650    -6.9980 ca         1 LC5      -0.112000
     25 C18         -2.6240     2.6010    -6.0000 ca         1 LC5      -0.143000
     26 H1           3.6170     0.6210     1.8040 ho         1 LC5       0.366000
     27 H2           0.4480    -0.8230     2.4450 h1         1 LC5       0.028700
     28 H3           0.6190     0.9350     2.5450 h1         1 LC5       0.028700
     29 H4           1.8520    -0.1150     3.2570 h1         1 LC5       0.028700
     30 H5           2.6420    -0.8520    -1.3280 hc         1 LC5       0.106700
     31 H6           2.5350     0.9130    -1.3970 hc         1 LC5       0.106700
     32 H7           0.3280    -0.9660    -2.3120 hc         1 LC5       0.087700
     33 H8           2.5770     0.4080    -3.8020 hc         1 LC5       0.022200
     34 H9           1.0830    -0.0840    -4.6120 hc         1 LC5       0.022200
     35 H12          0.7680     2.0050    -2.7760 hc         1 LC5       0.017700
     36 H13         -0.3430     1.3320    -1.5740 hc         1 LC5       0.017700
     37 H14         -0.4670     0.8370    -4.5720 hc         1 LC5       0.063700
     38 H15         -1.5780     0.1630    -3.3710 hc         1 LC5       0.063700
     39 H16         -2.2620     2.4500    -2.7220 hc         1 LC5       0.037200
     40 H17         -1.1510     3.1230    -3.9230 hc         1 LC5       0.037200
     41 H18         -3.9800     1.0170    -2.1300 ha         1 LC5       0.158000
     42 H19         -5.8000    -0.0460    -1.9500 ha         1 LC5       0.119000
     43 H20         -7.3920    -0.2490    -3.5930 ha         1 LC5       0.107000
     44 H21         -7.1390     0.4870    -5.7460 ha         1 LC5       0.118000
     45 H22         -5.5190     1.7600    -7.5280 ha         1 LC5       0.116000
     46 H23         -3.3880     2.8520    -7.9900 ha         1 LC5       0.114000
     47 H24         -1.6830     3.0870    -6.2290 ha         1 LC5       0.134000
@<TRIPOS>BOND
     1    24    23 ar
     2    24    25 ar
     3    23    22 ar
     4    25    16 ar
     5    22    21 ar
     6    22    17 ar
     7    21    20 ar
     8    16    17 ar
     9    16    15 1
    10    17    18 ar
    11    15    14 1
    12    20    19 ar
    13     4     3 1
    14    18    19 ar
    15     5     3 1
    16    13    14 1
    17    13     7 1
    18     3     2 1
    19    12     9 1
    20     2     1 2
    21     2     6 1
    22     7     6 1
    23     7     8 1
    24     8     9 1
    25     9    10 1
    26     9    11 1
    27     4    26 1
    28     5    27 1
    29     5    28 1
    30     5    29 1
    31     6    30 1
    32     6    31 1
    33     7    32 1
    34     8    33 1
    35     8    34 1
    36    13    35 1
    37    13    36 1
    38    14    37 1
    39    14    38 1
    40    15    39 1
    41    15    40 1
    42    18    41 1
    43    19    42 1
    44    20    43 1
    45    21    44 1
    46    23    45 1
    47    24    46 1
    48    25    47 1
@<TRIPOS>SUBSTRUCTURE
     1 LC5         1 TEMP              0 ****  ****    0 ROOT
