@<TRIPOS>MOLECULE
molecule
   41    41     1     0     0
SMALL
bcc


@<TRIPOS>ATOM
      1 O12          0.0000     0.0000     0.0000 o          1 LC7      -0.627100
      2 C4           1.2130     0.0000     0.0000 c          1 LC7       0.690100
      3 N9           1.8870     0.0000     1.1660 n          1 LC7      -0.389300
      4 O10          3.3040     0.0000     1.1650 oh         1 LC7      -0.359100
      5 C11          1.1570    -0.0000     2.4360 c3         1 LC7       0.098300
      6 C3           1.9660    -0.0060    -1.3060 c3         1 LC7      -0.154400
      7 C2           0.9740    -0.1140    -2.4660 c3         1 LC7      -0.013700
      8 C1           1.7410    -0.2930    -3.7780 c3         1 LC7      -0.251600
      9 P5           2.3530    -2.0060    -3.8940 p5         1 LC7       1.046700
     10 O7           1.1060    -3.0250    -3.8810 o          1 LC7      -0.912833
     11 O6           3.1810    -2.1890    -5.2630 o          1 LC7      -0.912833
     12 O8           3.2370    -2.2930    -2.7410 o          1 LC7      -0.912833
     13 C13          0.1320     1.1620    -2.5370 c3         1 LC7      -0.086400
     14 C14         -0.9410     1.0040    -3.6160 c3         1 LC7      -0.069400
     15 C15         -1.7840     2.2800    -3.6870 c3         1 LC7      -0.049100
     16 C16         -2.8420     2.1250    -4.7490 ca         1 LC7      -0.025300
     17 C17         -4.0790     1.6030    -4.4220 ca         1 LC7      -0.162000
     18 C18         -2.5760     2.5100    -6.0500 ca         1 LC7      -0.137000
     19 C20         -3.5470     2.3740    -7.0250 ca         1 LC7      -0.108000
     20 C21         -4.7850     1.8520    -6.6990 ca         1 LC7      -0.192000
     21 C19         -5.0500     1.4610    -5.3980 ca         1 LC7       0.121900
     22 F22         -6.2600     0.9520    -5.0780 f          1 LC7      -0.159900
     23 H1           3.6180     0.7500     1.6440 ho         1 LC7       0.365000
     24 H2           0.5640     0.9030     2.5120 h1         1 LC7       0.029700
     25 H3           1.8610    -0.0410     3.2580 h1         1 LC7       0.029700
     26 H4           0.5040    -0.8640     2.4770 h1         1 LC7       0.029700
     27 H5           2.5330     0.9130    -1.3990 hc         1 LC7       0.102700
     28 H6           2.6420    -0.8510    -1.3290 hc         1 LC7       0.102700
     29 H7           0.3250    -0.9660    -2.3080 hc         1 LC7       0.091700
     30 H8           2.5790     0.3920    -3.8030 hc         1 LC7       0.021700
     31 H9           1.0810    -0.0890    -4.6130 hc         1 LC7       0.021700
     32 H12         -0.3420     1.3350    -1.5790 hc         1 LC7       0.017700
     33 H13          0.7690     2.0030    -2.7820 hc         1 LC7       0.017700
     34 H14         -0.4670     0.8310    -4.5750 hc         1 LC7       0.064200
     35 H15         -1.5790     0.1630    -3.3710 hc         1 LC7       0.064200
     36 H16         -2.2570     2.4540    -2.7290 hc         1 LC7       0.037200
     37 H17         -1.1460     3.1200    -3.9330 hc         1 LC7       0.037200
     38 H18         -4.3010     1.3390    -3.3950 ha         1 LC7       0.147000
     39 H19         -1.6130     2.9370    -6.3020 ha         1 LC7       0.139000
     40 H20         -3.3440     2.6920    -8.0400 ha         1 LC7       0.121000
     41 H21         -5.5410     1.7310    -7.4650 ha         1 LC7       0.124000
@<TRIPOS>BOND
     1    19    20 ar
     2    19    18 ar
     3    20    21 ar
     4    18    16 ar
     5    21    22 1
     6    21    17 ar
     7    16    17 ar
     8    16    15 1
     9    15    14 1
    10     5     3 1
    11     4     3 1
    12    13    14 1
    13    13     7 1
    14     3     2 1
    15    12     9 1
    16     2     1 2
    17     2     6 1
    18     7     6 1
    19     7     8 1
    20     8     9 1
    21     9    11 1
    22     9    10 1
    23     4    23 1
    24     5    24 1
    25     5    25 1
    26     5    26 1
    27     6    27 1
    28     6    28 1
    29     7    29 1
    30     8    30 1
    31     8    31 1
    32    13    32 1
    33    13    33 1
    34    14    34 1
    35    14    35 1
    36    15    36 1
    37    15    37 1
    38    17    38 1
    39    18    39 1
    40    19    40 1
    41    20    41 1
@<TRIPOS>SUBSTRUCTURE
     1 LC7         1 TEMP              0 ****  ****    0 ROOT
