@<TRIPOS>MOLECULE
LC7
   41    41     1     0     0
SMALL
bcc


@<TRIPOS>ATOM
      1 O12          0.0000     0.0000     0.0000 o          1 LC7      -0.674100
      2 C4           1.2130     0.0000     0.0000 c          1 LC7       0.612100
      3 N9           1.8870     0.0000     1.1660 n          1 LC7      -0.063300
      4 O10          3.3040     0.0000     1.1650 oh         1 LC7      -0.421100
      5 C11          1.1570    -0.0000     2.4360 c3         1 LC7       0.086300
      6 C3           1.9660    -0.0060    -1.3060 c3         1 LC7      -0.133400
      7 C2           0.9740    -0.1140    -2.4660 c3         1 LC7       0.020300
      8 C1           1.7410    -0.2930    -3.7780 c3         1 LC7      -0.069600
      9 P5           2.3530    -2.0060    -3.8940 p5         1 LC7       0.435700
     10 O7           1.1060    -3.0250    -3.8810 o          1 LC7      -0.745500
     11 O6           3.1810    -2.1890    -5.2630 o          1 LC7      -0.745500
     12 O8           3.2370    -2.2930    -2.7410 o          1 LC7      -0.745500
     13 C13          0.1320     1.1620    -2.5370 c3         1 LC7      -0.063400
     14 C14         -0.9410     1.0040    -3.6160 c3         1 LC7      -0.029400
     15 C15         -1.7840     2.2800    -3.6870 c3         1 LC7       0.012900
     16 C16         -2.8420     2.1250    -4.7490 ca         1 LC7      -0.024300
     17 C17         -4.0790     1.6030    -4.4220 ca         1 LC7      -0.127000
     18 C18         -2.5760     2.5100    -6.0500 ca         1 LC7      -0.106000
     19 C20         -3.5470     2.3740    -7.0250 ca         1 LC7      -0.082000
     20 C21         -4.7850     1.8520    -6.6990 ca         1 LC7      -0.164000
     21 C19         -5.0500     1.4610    -5.3980 ca         1 LC7       0.088900
     22 F22         -6.2600     0.9520    -5.0780 f          1 LC7      -0.143900
     23 H1           3.6180     0.7500     1.6440 ho         1 LC7       0.358000
     24 H2           0.5640     0.9030     2.5120 h1         1 LC7      -0.003633
     25 H3           1.8610    -0.0410     3.2580 h1         1 LC7      -0.003633
     26 H4           0.5040    -0.8640     2.4770 h1         1 LC7      -0.003633
     27 H5           2.5330     0.9130    -1.3990 hc         1 LC7       0.074700
     28 H6           2.6420    -0.8510    -1.3290 hc         1 LC7       0.074700
     29 H7           0.3250    -0.9660    -2.3080 hc         1 LC7       0.067700
     30 H8           2.5790     0.3920    -3.8030 hc         1 LC7      -0.003300
     31 H9           1.0810    -0.0890    -4.6130 hc         1 LC7      -0.003300
     32 H12         -0.3420     1.3350    -1.5790 hc         1 LC7      -0.002300
     33 H13          0.7690     2.0030    -2.7820 hc         1 LC7      -0.002300
     34 H14         -0.4670     0.8310    -4.5750 hc         1 LC7       0.039700
     35 H15         -1.5790     0.1630    -3.3710 hc         1 LC7       0.039700
     36 H16         -2.2570     2.4540    -2.7290 hc         1 LC7       0.007700
     37 H17         -1.1460     3.1200    -3.9330 hc         1 LC7       0.007700
     38 H18         -4.3010     1.3390    -3.3950 ha         1 LC7       0.123000
     39 H19         -1.6130     2.9370    -6.3020 ha         1 LC7       0.114000
     40 H20         -3.3440     2.6920    -8.0400 ha         1 LC7       0.093000
     41 H21         -5.5410     1.7310    -7.4650 ha         1 LC7       0.102000
@<TRIPOS>BOND
     1     1     2 2   
     2     2     3 1   
     3     2     6 1   
     4     3     4 1   
     5     3     5 1   
     6     4    23 1   
     7     5    24 1   
     8     5    25 1   
     9     5    26 1   
    10     6     7 1   
    11     6    27 1   
    12     6    28 1   
    13     7     8 1   
    14     7    13 1   
    15     7    29 1   
    16     8     9 1   
    17     8    30 1   
    18     8    31 1   
    19     9    10 1   
    20     9    11 1   
    21     9    12 1   
    22    13    14 1   
    23    13    32 1   
    24    13    33 1   
    25    14    15 1   
    26    14    34 1   
    27    14    35 1   
    28    15    16 1   
    29    15    36 1   
    30    15    37 1   
    31    16    17 ar  
    32    16    18 ar  
    33    17    21 ar  
    34    17    38 1   
    35    18    19 ar  
    36    18    39 1   
    37    19    20 ar  
    38    19    40 1   
    39    20    21 ar  
    40    20    41 1   
    41    21    22 1   
@<TRIPOS>SUBSTRUCTURE
     1 LC7         1 TEMP              0 ****  ****    0 ROOT
