@<TRIPOS>MOLECULE
LCD
   41    43     1     0     0
SMALL
bcc


@<TRIPOS>ATOM
      1 CAB        -0.0490    0.0740    0.0360 c3        1 LCD      0.111700
      2 OAO         1.3710    0.0660   -0.0310 os        1 LCD     -0.309900
      3 CAV         2.0310    0.0080    1.1840 ca        1 LCD      0.090100
      4 CAK         1.4060   -0.0290    2.4260 ca        1 LCD     -0.168000
      5 CAU         3.4490   -0.0120    1.1040 ca        1 LCD      0.105100
      6 OAN         3.9730    0.0280   -0.1730 os        1 LCD     -0.307900
      7 CAA         5.3930    0.0040   -0.2590 c3        1 LCD      0.110700
      8 CAH         4.2010   -0.0680    2.2760 ca        1 LCD     -0.185000
      9 CAG         3.5640   -0.1060    3.5180 ca        1 LCD     -0.096000
     10 CAS         2.1700   -0.0870    3.6110 ca        1 LCD     -0.049800
     11 CAF         1.4590   -0.1230    4.8710 ce        1 LCD     -0.085200
     12 CAX         1.9500   -0.2120    6.1170 cd        1 LCD     -0.025100
     13 CAW         1.1520   -0.2460    7.3970 c         1 LCD      0.594900
     14 OAD        -0.0760   -0.1940    7.4700 o         1 LCD     -0.541100
     15 OAQ         3.3270   -0.2900    6.4100 os        1 LCD     -0.236200
     16 CAY         3.4390   -0.3720    7.8080 ca        1 LCD      0.159100
     17 CAL         4.6310   -0.4630    8.4890 ca        1 LCD     -0.203000
     18 CAZ         2.1650   -0.3490    8.4460 ca        1 LCD     -0.315600
     19 CAJ         2.1020   -0.4220    9.8300 ca        1 LCD      0.019000
     20 CAI         3.2850   -0.5150   10.5590 ca        1 LCD     -0.273000
     21 CAT         4.5380   -0.5360    9.9080 ca        1 LCD      0.228100
     22 OAP         5.7340   -0.6250   10.5430 os        1 LCD     -0.269900
     23 CAM         5.7090   -0.7010   11.9770 c3        1 LCD     -0.019600
     24 CAR         7.1970   -0.7910   12.4450 c         1 LCD      0.928600
     25 OAE         7.7810    0.2960   12.6840 o         1 LCD     -0.811300
     26 OAC         7.6680   -1.9460   12.6040 o         1 LCD     -0.811300
     27 H1         -0.4300   -0.8600    0.5180 h1        1 LCD      0.040700
     28 H2         -0.4160    0.9740    0.5860 h1        1 LCD      0.040700
     29 H3         -0.3580    0.1160   -1.0390 h1        1 LCD      0.040700
     30 H4          0.3090   -0.0140    2.4980 ha        1 LCD      0.138000
     31 H5          5.5860    0.0420   -1.3610 h1        1 LCD      0.042367
     32 H6          5.8360    0.8950    0.2480 h1        1 LCD      0.042367
     33 H7          5.8010   -0.9390    0.1800 h1        1 LCD      0.042367
     34 H8          5.2990   -0.0850    2.2370 ha        1 LCD      0.141000
     35 H9          4.1820   -0.1500    4.4300 ha        1 LCD      0.165000
     36 H10         0.3540   -0.0710    4.7980 ha        1 LCD      0.148000
     37 H11         5.6100   -0.4810    7.9960 ha        1 LCD      0.171000
     38 H12         1.1290   -0.4050   10.3430 ha        1 LCD      0.138000
     39 H13         3.2420   -0.5730   11.6550 ha        1 LCD      0.152000
     40 H14         5.2290    0.2220   12.3870 h1        1 LCD      0.028200
     41 H15         5.1470   -1.6170   12.2870 h1        1 LCD      0.028200
@<TRIPOS>BOND
     1    1    2 1   
     2    1   27 1   
     3    1   28 1   
     4    1   29 1   
     5    2    3 1   
     6    3    4 ar  
     7    3    5 ar  
     8    4   10 ar  
     9    4   30 1   
    10    5    6 1   
    11    5    8 ar  
    12    6    7 1   
    13    7   31 1   
    14    7   32 1   
    15    7   33 1   
    16    8    9 ar  
    17    8   34 1   
    18    9   10 ar  
    19    9   35 1   
    20   10   11 1   
    21   11   12 2   
    22   11   36 1   
    23   12   13 1   
    24   12   15 1   
    25   13   14 2   
    26   13   18 1   
    27   15   16 1   
    28   16   17 ar  
    29   16   18 ar  
    30   17   21 ar  
    31   17   37 1   
    32   18   19 ar  
    33   19   20 ar  
    34   19   38 1   
    35   20   21 ar  
    36   20   39 1   
    37   21   22 1   
    38   22   23 1   
    39   23   24 1   
    40   23   40 1   
    41   23   41 1   
    42   24   25 1   
    43   24   26 1   
@<TRIPOS>SUBSTRUCTURE
     1 LCD         1 TEMP              0 ****  ****    0 ROOT
