@<TRIPOS>MOLECULE
molecule
   41    43     1     0     0
SMALL
bcc


@<TRIPOS>ATOM
      1 CAB          0.0000     0.0000     0.0000 c3         1 LCD       0.128700
      2 OAO          1.4290     0.0000     0.0000 os         1 LCD      -0.318900
      3 CAV          2.0460     0.0000     1.2120 ca         1 LCD       0.104100
      4 CAK          1.2930    -0.0050     2.3700 ca         1 LCD      -0.177000
      5 CAU          3.4390    -0.0000     1.2850 ca         1 LCD       0.118100
      6 OAN          4.1760    -0.0010     0.1450 os         1 LCD      -0.317900
      7 CAA          5.5980    -0.0020     0.2910 c3         1 LCD       0.127700
      8 CAH          4.0730     0.0010     2.5210 ca         1 LCD      -0.194000
      9 CAG          3.3310     0.0020     3.6810 ca         1 LCD      -0.101000
     10 CAS          1.9330    -0.0040     3.6160 ca         1 LCD      -0.066800
     11 CAF          1.1380    -0.0090     4.8510 ce         1 LCD      -0.074200
     12 CAX          1.7550    -0.1350     6.0540 cd         1 LCD      -0.021100
     13 CAW          1.0930    -0.2690     7.3590 c          1 LCD       0.574900
     14 OAD         -0.1040    -0.2870     7.5900 o          1 LCD      -0.530100
     15 OAQ          3.0910    -0.1650     6.2680 os         1 LCD      -0.212200
     16 CAY          3.3860    -0.2990     7.5800 ca         1 LCD       0.168100
     17 CAL          4.6050    -0.3730     8.2450 ca         1 LCD      -0.204000
     18 CAZ          2.2000    -0.3770     8.3260 ca         1 LCD      -0.336600
     19 CAJ          2.2450    -0.5240     9.7130 ca         1 LCD       0.013000
     20 CAI          3.4500    -0.5990    10.3510 ca         1 LCD      -0.269000
     21 CAT          4.6340    -0.5130     9.6220 ca         1 LCD       0.230100
     22 OAP          5.8270    -0.5880    10.2650 os         1 LCD      -0.270900
     23 CAM          5.7900    -0.7560    11.6840 c3         1 LCD       0.014400
     24 CAR          7.1970    -0.8180    12.2200 c          1 LCD       0.895600
     25 OAE          8.1360    -0.7300    11.4630 o          1 LCD      -0.820300
     26 OAC          7.4090    -0.9730    13.5360 o          1 LCD      -0.820300
     27 H1          -0.3610     0.8830     0.5130 h1         1 LCD       0.037700
     28 H2          -0.3610    -0.8860     0.5080 h1         1 LCD       0.037700
     29 H3          -0.3610     0.0030    -1.0210 h1         1 LCD       0.037700
     30 H4           0.2110    -0.0090     2.3150 ha         1 LCD       0.139000
     31 H5           5.9050     0.8840     0.8350 h1         1 LCD       0.040367
     32 H6           6.0620    -0.0030    -0.6880 h1         1 LCD       0.040367
     33 H7           5.9040    -0.8860     0.8380 h1         1 LCD       0.040367
     34 H8           5.1550     0.0030     2.5720 ha         1 LCD       0.143000
     35 H9           3.8290     0.0020     4.6430 ha         1 LCD       0.175000
     36 H10          0.0560    -0.0020     4.7960 ha         1 LCD       0.160000
     37 H11          5.5310    -0.3070     7.6870 ha         1 LCD       0.158000
     38 H12          1.3250    -0.5910    10.2810 ha         1 LCD       0.134000
     39 H13          3.4850    -0.7090    11.4290 ha         1 LCD       0.156000
     40 H14          5.2700    -1.6750    11.9260 h1         1 LCD       0.032200
     41 H15          5.2690     0.0820    12.1330 h1         1 LCD       0.032200
@<TRIPOS>BOND
     1    25    24 1
     2    23    24 1
     3    23    22 1
     4    20    19 ar
     5    20    21 ar
     6    24    26 1
     7    19    18 ar
     8    14    13 2
     9    21    22 1
    10    21    17 ar
    11    18    13 1
    12    18    16 ar
    13    13    12 1
    14    17    16 ar
    15    16    15 1
    16    12    15 1
    17    12    11 2
    18    11    10 1
    19    10     4 ar
    20    10     9 ar
    21     4     3 ar
    22     9     8 ar
    23     3     2 1
    24     3     5 ar
    25     2     1 1
    26     8     5 ar
    27     5     6 1
    28     6     7 1
    29     1    27 1
    30     1    28 1
    31     1    29 1
    32     4    30 1
    33     7    31 1
    34     7    32 1
    35     7    33 1
    36     8    34 1
    37     9    35 1
    38    11    36 1
    39    17    37 1
    40    19    38 1
    41    20    39 1
    42    23    40 1
    43    23    41 1
@<TRIPOS>SUBSTRUCTURE
     1 LCD         1 TEMP              0 ****  ****    0 ROOT
