@<TRIPOS>MOLECULE
LCE
   22    23     1     0     0
SMALL
bcc


@<TRIPOS>ATOM
      1 CAA         0.4250    0.4890   -0.3760 c3        1 LCE      0.095700
      2 OAD         3.0640    1.9000    0.5770 o         1 LCE     -0.819800
      3 OAE         4.2140    0.3900   -0.6120 o         1 LCE     -0.819800
      4 OAF         5.8520   -1.5220    2.7960 o         1 LCE     -0.466100
      5 CLAG        4.8740   -4.7360    2.4200 cl        1 LCE     -0.137900
      6 CLAH        3.3880   -3.2220    4.3510 cl        1 LCE     -0.137900
      7 OAK         1.0000   -0.7320    0.0670 os        1 LCE     -0.405600
      8 SAM         1.3830   -2.3650    2.0200 ss        1 LCE     -0.328200
      9 CAN         3.4820    0.7300    0.3520 c         1 LCE      0.933600
     10 CAP         1.5770   -0.6730    1.3590 c3        1 LCE      0.294200
     11 CAQ         2.9980   -2.8900    1.5890 cy        1 LCE     -0.010600
     12 CAR         3.0660   -0.3580    1.3920 c3        1 LCE     -0.214700
     13 CAS         3.8520   -1.6390    1.2160 cy        1 LCE     -0.126700
     14 CAT         4.0060   -3.2430    2.7270 cy        1 LCE      0.028800
     15 CAU         4.8270   -1.9760    2.3320 c         1 LCE      0.594100
     16 HAA         1.1640    1.3290   -0.3220 h1        1 LCE      0.042367
     17 HAAA        0.1350    0.2820   -1.4360 h1        1 LCE      0.042367
     18 HAAB       -0.4820    0.7240    0.2360 h1        1 LCE      0.042367
     19 HAP         1.0030    0.0220    2.0210 h2        1 LCE      0.070700
     20 HAQ         2.9590   -3.6760    0.8060 h1        1 LCE      0.101700
     21 HAR         3.2930    0.0880    2.4000 hc        1 LCE      0.067700
     22 HAS         4.3220   -1.6690    0.1970 hc        1 LCE      0.152700
@<TRIPOS>BOND
     1    1    7 1   
     2    1   16 1   
     3    1   17 1   
     4    1   18 1   
     5    2    9 1   
     6    3    9 1   
     7    4   15 2   
     8    5   14 1   
     9    6   14 1   
    10    7   10 1   
    11    8   10 1   
    12    8   11 1   
    13    9   12 1   
    14   10   12 1   
    15   10   19 1   
    16   11   13 1   
    17   11   14 1   
    18   11   20 1   
    19   12   13 1   
    20   12   21 1   
    21   13   15 1   
    22   13   22 1   
    23   14   15 1   
@<TRIPOS>SUBSTRUCTURE
     1 LCE         1 TEMP              0 ****  ****    0 ROOT
