@<TRIPOS>MOLECULE
molecule
   22    23     1     0     0
SMALL
bcc


@<TRIPOS>ATOM
      1 CAA          0.0000     0.0000     0.0000 c3         1 LCE       0.125700
      2 OAD          3.7990     1.7240    -0.3850 o          1 LCE      -0.828800
      3 OAE          4.5770    -0.2810    -0.8920 o          1 LCE      -0.828800
      4 OAF          5.1020    -1.4680     3.6040 o          1 LCE      -0.463100
      5 ClAG         4.7060    -4.6150     1.8950 cl         1 LCE      -0.150400
      6 ClAH         2.7670    -3.7750     4.0290 cl         1 LCE      -0.150400
      7 OAK          1.4290     0.0000     0.0000 os         1 LCE      -0.360600
      8 SAM          1.5250    -1.5100     2.2350 ss         1 LCE      -0.446200
      9 CAN          4.0110     0.4310    -0.0960 c          1 LCE       0.907600
     10 CAP          2.0110     0.0000     1.3050 c3         1 LCE       0.313200
     11 CAQ          2.8370    -2.5720     1.5050 cy         1 LCE       0.041400
     12 CAR          3.5440    -0.1350     1.2210 c3         1 LCE      -0.172700
     13 CAS          4.0130    -1.5810     1.3300 cy         1 LCE      -0.145700
     14 CAT          3.6930    -3.2820     2.5640 cy         1 LCE       0.066800
     15 CAU          4.4430    -1.9770     2.7290 c          1 LCE       0.587100
     16 HAA         -0.3610     0.2400     0.9930 h1         1 LCE       0.024700
     17 HAAA        -0.3610    -0.9800    -0.2880 h1         1 LCE       0.024700
     18 HAAB        -0.3610     0.7400    -0.7040 h1         1 LCE       0.024700
     19 HAP          1.7360     0.8920     1.8560 h2         1 LCE       0.080700
     20 HAQ          2.5860    -3.1440     0.6200 h1         1 LCE       0.114700
     21 HAR          3.9880     0.4350     2.0280 hc         1 LCE       0.081700
     22 HAS          4.7160    -1.8850     0.5630 hc         1 LCE       0.153700
@<TRIPOS>BOND
     1     1     7 1
     2     1    16 1
     3     1    17 1
     4     1    18 1
     5     2     9 1
     6     3     9 1
     7     4    15 2
     8     5    14 1
     9     6    14 1
    10     7    10 1
    11     8    10 1
    12     8    11 1
    13     9    12 1
    14    10    12 1
    15    10    19 1
    16    11    13 1
    17    11    14 1
    18    11    20 1
    19    12    13 1
    20    12    21 1
    21    13    15 1
    22    13    22 1
    23    14    15 1
@<TRIPOS>SUBSTRUCTURE
     1 LCE         1 TEMP              0 ****  ****    0 ROOT
