@<TRIPOS>MOLECULE
LCF
   48    51     1     0     0
SMALL
bcc


@<TRIPOS>ATOM
      1 C1         -0.0340    0.1350   -0.0640 cc        1 LCF      0.027400
      2 C2         -1.6810    0.2500    1.9660 c3        1 LCF      0.028300
      3 C3         -1.2760    0.2910    3.4810 c3        1 LCF     -0.070000
      4 C4          0.2510   -0.0160    3.5280 c3        1 LCF      0.001900
      5 C5          0.6670   -0.0770    2.1010 cc        1 LCF     -0.144600
      6 C6          1.8270   -0.0800    1.3130 cd        1 LCF     -0.084000
      7 C7          1.3860    0.0530   -0.0650 cd        1 LCF     -0.158000
      8 N          -0.4500    0.0140    1.2510 na        1 LCF     -0.050100
      9 C8         -0.9720    0.3070   -1.1890 c3        1 LCF     -0.171100
     10 C9         -1.5290    1.7560   -1.2110 c         1 LCF      0.922600
     11 O1         -1.0280    2.5580   -2.0460 o         1 LCF     -0.834300
     12 O2         -2.4550    2.0370   -0.3990 o         1 LCF     -0.834300
     13 C10        -2.0530   -0.7520    4.2540 c3        1 LCF     -0.084100
     14 C11        -1.5530    1.6720    4.0370 c3        1 LCF     -0.084100
     15 C12         3.1740   -0.1590    1.8230 ca        1 LCF      0.031000
     16 C13         4.2240    0.5520    1.2180 ca        1 LCF     -0.132000
     17 C14         5.5140    0.4890    1.7380 ca        1 LCF     -0.136500
     18 C15         5.7820   -0.2830    2.8690 ca        1 LCF     -0.156000
     19 C16         4.7480   -0.9910    3.4790 ca        1 LCF     -0.136500
     20 C17         3.4550   -0.9290    2.9640 ca        1 LCF     -0.132000
     21 C18         2.2050    0.1150   -1.2500 ca        1 LCF      0.026000
     22 C19         3.2940   -0.7560   -1.4200 ca        1 LCF     -0.126500
     23 C20         4.0770   -0.7080   -2.5700 ca        1 LCF     -0.134500
     24 C21         3.7720    0.2220   -3.5670 ca        1 LCF     -0.003600
     25 C22         2.6930    1.0970   -3.4190 ca        1 LCF     -0.134500
     26 C23         1.9140    1.0450   -2.2660 ca        1 LCF     -0.126500
     27 CL1         4.7320    0.2850   -4.9800 cl        1 LCF     -0.145400
     28 H21        -2.1510    1.2150    1.6110 h1        1 LCF      0.091200
     29 H22A       -2.3980   -0.5910    1.7670 h1        1 LCF      0.091200
     30 H41         0.4450   -0.9880    4.0480 hc        1 LCF      0.049200
     31 H42         0.8070    0.7890    4.0700 hc        1 LCF      0.049200
     32 H81        -0.4460    0.0960   -2.1540 hc        1 LCF      0.052200
     33 H82        -1.8380   -0.3970   -1.0920 hc        1 LCF      0.052200
     34 H101       -3.1480   -0.5470    4.1870 hc        1 LCF      0.035200
     35 H102       -1.7540   -0.7380    5.3300 hc        1 LCF      0.035200
     36 H103       -1.8560   -1.7720    3.8430 hc        1 LCF      0.035200
     37 H111       -0.9890    2.4430    3.4580 hc        1 LCF      0.035200
     38 H112       -1.2440    1.7280    5.1090 hc        1 LCF      0.035200
     39 H113       -2.6430    1.9050    3.9670 hc        1 LCF      0.035200
     40 H13         4.0130    1.1590    0.3230 ha        1 LCF      0.140500
     41 H14         6.3240    1.0520    1.2530 ha        1 LCF      0.117500
     42 H15         6.8000   -0.3310    3.2760 ha        1 LCF      0.115000
     43 H16         4.9520   -1.6010    4.3710 ha        1 LCF      0.117500
     44 H17         2.6400   -1.4860    3.4500 ha        1 LCF      0.140500
     45 H19         3.5300   -1.4820   -0.6260 ha        1 LCF      0.173000
     46 H20         4.9240   -1.3970   -2.6890 ha        1 LCF      0.135000
     47 H22         2.4530    1.8270   -4.2060 ha        1 LCF      0.135000
     48 H23         1.0490    1.7350   -2.1510 ha        1 LCF      0.173000
@<TRIPOS>BOND
     1    1    7 2   
     2    1    8 1   
     3    1    9 1   
     4    2    3 1   
     5    2    8 1   
     6    2   28 1   
     7    2   29 1   
     8    3    4 1   
     9    3   13 1   
    10    3   14 1   
    11    4    5 1   
    12    4   30 1   
    13    4   31 1   
    14    5    6 2   
    15    5    8 1   
    16    6    7 1   
    17    6   15 1   
    18    7   21 1   
    19    9   10 1   
    20    9   32 1   
    21    9   33 1   
    22   10   11 1   
    23   10   12 1   
    24   13   34 1   
    25   13   35 1   
    26   13   36 1   
    27   14   37 1   
    28   14   38 1   
    29   14   39 1   
    30   15   16 ar  
    31   15   20 ar  
    32   16   17 ar  
    33   16   40 1   
    34   17   18 ar  
    35   17   41 1   
    36   18   19 ar  
    37   18   42 1   
    38   19   20 ar  
    39   19   43 1   
    40   20   44 1   
    41   21   22 ar  
    42   21   26 ar  
    43   22   23 ar  
    44   22   45 1   
    45   23   24 ar  
    46   23   46 1   
    47   24   25 ar  
    48   24   27 1   
    49   25   26 ar  
    50   25   47 1   
    51   26   48 1   
@<TRIPOS>SUBSTRUCTURE
     1 LCF         1 TEMP              0 ****  ****    0 ROOT
