@<TRIPOS>MOLECULE
molecule
   48    51     1     0     0
SMALL
bcc


@<TRIPOS>ATOM
      1 C1           0.0000     0.0000     0.0000 cc         1 LCF       0.011400
      2 C2          -1.6450     0.0050     1.9910 c3         1 LCF       0.048300
      3 C3          -1.2340     0.3770     3.4470 c3         1 LCF      -0.090000
      4 C4           0.2890     0.0090     3.5480 c3         1 LCF       0.005900
      5 C5           0.7070     0.0010     2.1300 cc         1 LCF      -0.157600
      6 C6           1.8370     0.0000     1.3560 cd         1 LCF      -0.094000
      7 C7           1.3860     0.0000     0.0000 cd         1 LCF      -0.158000
      8 N           -0.3690    -0.0040     1.2970 na         1 LCF      -0.035100
      9 C8          -0.9830     0.0030    -1.1020 c3         1 LCF      -0.134100
     10 C9          -1.3530     1.4100    -1.5160 c          1 LCF       0.894600
     11 O1          -2.2070     1.4420    -2.5690 o          1 LCF      -0.841300
     12 O2          -0.9610     2.4180    -0.9400 o          1 LCF      -0.841300
     13 C10         -2.0600    -0.4060     4.4690 c3         1 LCF      -0.081100
     14 C11         -1.4280     1.8850     3.6810 c3         1 LCF      -0.081100
     15 C12          3.1640     0.0020     1.8990 ca         1 LCF       0.029000
     16 C13          3.8090     1.2130     2.1650 ca         1 LCF      -0.116000
     17 C14          5.1000     1.2150     2.6920 ca         1 LCF      -0.142000
     18 C15          5.7490     0.0090     2.9550 ca         1 LCF      -0.147000
     19 C16          5.1060    -1.2000     2.6900 ca         1 LCF      -0.142000
     20 C17          3.8150    -1.2040     2.1640 ca         1 LCF      -0.116000
     21 C18          2.1580     0.0020    -1.2120 ca         1 LCF       0.038000
     22 C19          2.5340    -1.2070    -1.8010 ca         1 LCF      -0.098500
     23 C20          3.2820    -1.2040    -2.9780 ca         1 LCF      -0.134000
     24 C21          3.6550     0.0040    -3.5660 ca         1 LCF       0.013400
     25 C22          3.2780     1.2120    -2.9770 ca         1 LCF      -0.134000
     26 C23          2.5290     1.2100    -1.8010 ca         1 LCF      -0.098500
     27 Cl1          4.5790     0.0070    -5.0180 cl         1 LCF      -0.143400
     28 H21         -2.1040    -0.9750     1.9620 h1         1 LCF       0.065700
     29 H22A        -2.3020     0.7590     1.5750 h1         1 LCF       0.065700
     30 H41          0.3920    -0.9880     3.9590 hc         1 LCF       0.055200
     31 H42          0.8160     0.7970     4.0730 hc         1 LCF       0.055200
     32 H81         -0.5600    -0.5160    -1.9540 hc         1 LCF       0.053200
     33 H82         -1.8760    -0.5170    -0.7800 hc         1 LCF       0.053200
     34 H101        -1.7290    -0.1560     5.4700 hc         1 LCF       0.036200
     35 H102        -3.1070    -0.1490     4.3610 hc         1 LCF       0.036200
     36 H103        -1.9300    -1.4690     4.3010 hc         1 LCF       0.036200
     37 H111        -0.8160     2.4410     2.9810 hc         1 LCF       0.036200
     38 H112        -2.4700     2.1420     3.5330 hc         1 LCF       0.036200
     39 H113        -1.1360     2.1340     4.6940 hc         1 LCF       0.036200
     40 H13          3.3050     2.1500     1.9610 ha         1 LCF       0.137500
     41 H14          5.5990     2.1550     2.8980 ha         1 LCF       0.117500
     42 H15          6.7520     0.0110     3.3650 ha         1 LCF       0.114000
     43 H16          5.6100    -2.1370     2.8950 ha         1 LCF       0.117500
     44 H17          3.3170    -2.1440     1.9580 ha         1 LCF       0.137500
     45 H19          2.2440    -2.1450    -1.3440 ha         1 LCF       0.147000
     46 H20          3.5750    -2.1420    -3.4350 ha         1 LCF       0.129500
     47 H22          3.5670     2.1500    -3.4340 ha         1 LCF       0.129500
     48 H23          2.2370     2.1480    -1.3430 ha         1 LCF       0.147000
@<TRIPOS>BOND
     1     1     7 2
     2     1     8 1
     3     1     9 1
     4     2     3 1
     5     2     8 1
     6     2    28 1
     7     2    29 1
     8     3     4 1
     9     3    13 1
    10     3    14 1
    11     4     5 1
    12     4    30 1
    13     4    31 1
    14     5     6 2
    15     5     8 1
    16     6     7 1
    17     6    15 1
    18     7    21 1
    19     9    10 1
    20     9    32 1
    21     9    33 1
    22    10    11 1
    23    10    12 1
    24    13    34 1
    25    13    35 1
    26    13    36 1
    27    14    37 1
    28    14    38 1
    29    14    39 1
    30    15    16 ar
    31    15    20 ar
    32    16    17 ar
    33    16    40 1
    34    17    18 ar
    35    17    41 1
    36    18    19 ar
    37    18    42 1
    38    19    20 ar
    39    19    43 1
    40    20    44 1
    41    21    22 ar
    42    21    26 ar
    43    22    23 ar
    44    22    45 1
    45    23    24 ar
    46    23    46 1
    47    24    25 ar
    48    24    27 1
    49    25    26 ar
    50    25    47 1
    51    26    48 1
@<TRIPOS>SUBSTRUCTURE
     1 LCF         1 TEMP              0 ****  ****    0 ROOT
