@<TRIPOS>MOLECULE
molecule
   51    54     1     0     0
SMALL
bcc


@<TRIPOS>ATOM
      1 F            0.0000     0.0000     0.0000 f          1 LCI      -0.124900
      2 C6           1.3510     0.0000     0.0000 ca         1 LCI      -0.162700
      3 C5           2.0590     0.0000     1.1890 ca         1 LCI       0.470200
      4 N2           3.3840    -0.0000     1.1530 nb         1 LCI      -0.815000
      5 C7           2.0670    -0.0060    -1.2020 ca         1 LCI       0.603800
      6 N5           3.3980    -0.0070    -1.1600 nb         1 LCI      -0.787000
      7 C4           4.0350    -0.0010     0.0000 ca         1 LCI       0.928900
      8 N1           5.4210    -0.0010     0.0080 nu         1 LCI      -0.907900
      9 C3           6.1460    -0.0010     1.2820 c3         1 LCI       0.253500
     10 C2           7.5340    -0.6100     1.0780 c3         1 LCI      -0.090400
     11 C1           8.2910    -0.6100     2.4080 c3         1 LCI      -0.098400
     12 C16          6.2890     1.4370     1.7870 c3         1 LCI      -0.090400
     13 C17          7.0460     1.4370     3.1160 c3         1 LCI      -0.098400
     14 C            8.4350     0.8270     2.9130 c3         1 LCI       0.092500
     15 N            9.1610     0.8270     4.1890 nz         1 LCI      -0.809600
     16 C8           1.3550    -0.0130    -2.5030 cc         1 LCI      -0.408800
     17 C15         -0.0420    -0.0130    -2.6880 cc         1 LCI       0.367200
     18 N4          -0.2790    -0.0210    -3.9720 nd         1 LCI      -0.500800
     19 N3           0.9440    -0.0240    -4.6530 na         1 LCI       0.080400
     20 C14          1.1170    -0.0310    -6.1070 c3         1 LCI       0.058600
     21 C9           1.9340    -0.0140    -3.7400 cd         1 LCI       0.001400
     22 C10          3.4120    -0.0090    -4.0310 c3         1 LCI       0.010900
     23 C11          3.9070     1.4350    -4.1340 cx         1 LCI      -0.123700
     24 C13          4.9290     1.9080    -3.0980 cx         1 LCI      -0.137400
     25 C12          5.3650     1.6560    -4.5430 cx         1 LCI      -0.137400
     26 H1           1.5360     0.0010     2.1380 h4         1 LCI       0.043100
     27 H2           5.9260    -0.0500    -0.8550 hn         1 LCI       0.461800
     28 H3           5.6010    -0.5850     2.0130 h1         1 LCI       0.087700
     29 H4           8.0820    -0.0220     0.3520 hc         1 LCI       0.076950
     30 H5           7.4310    -1.6280     0.7230 hc         1 LCI       0.076950
     31 H6           9.2750    -1.0400     2.2610 hc         1 LCI       0.066200
     32 H7           7.7410    -1.1940     3.1350 hc         1 LCI       0.066200
     33 H8           5.3060     1.8660     1.9330 hc         1 LCI       0.076950
     34 H9           6.8400     2.0200     1.0590 hc         1 LCI       0.076950
     35 H10          6.4980     0.8500     3.8430 hc         1 LCI       0.066200
     36 H11          7.1490     2.4560     3.4710 hc         1 LCI       0.066200
     37 H12          8.9800     1.4110     2.1810 hx         1 LCI       0.116700
     38 H13          8.6550     0.2870     4.8620 hn         1 LCI       0.454133
     39 H14          9.2550     1.7680     4.5190 hn         1 LCI       0.454133
     40 H15         10.0700     0.4290     4.0560 hn         1 LCI       0.454133
     41 H16         -0.7880    -0.0090    -1.9030 h4         1 LCI       0.071100
     42 H17          1.8110    -0.8150    -6.3850 h1         1 LCI       0.061700
     43 H18          1.5070     0.9270    -6.4280 h1         1 LCI       0.061700
     44 H19          0.1610    -0.2090    -6.5840 h1         1 LCI       0.061700
     45 H20          3.5980    -0.5220    -4.9670 hc         1 LCI       0.071200
     46 H21          3.9390    -0.5150    -3.2310 hc         1 LCI       0.071200
     47 H22          3.2200     2.2010    -4.4740 hc         1 LCI       0.088700
     48 H23          5.2440     1.1620    -2.3780 hc         1 LCI       0.072700
     49 H24          4.8530     2.9490    -2.8070 hc         1 LCI       0.072700
     50 H25          5.5550     2.5430    -5.1350 hc         1 LCI       0.072700
     51 H26          5.9460     0.7570    -4.7050 hc         1 LCI       0.072700
@<TRIPOS>BOND
     1    15    14 1
     2    14    11 1
     3    14    13 1
     4    11    10 1
     5    10     9 1
     6    13    12 1
     7    12     9 1
     8     9     8 1
     9     8     7 1
    10     7     4 ar
    11     7     6 ar
    12     4     3 ar
    13     6     5 ar
    14     3     2 ar
    15    22    23 1
    16    22    21 1
    17    24    23 1
    18    24    25 1
    19     5     2 ar
    20     5    16 1
    21    23    25 1
    22     2     1 1
    23    21    16 2
    24    21    19 1
    25    16    17 1
    26    19    20 1
    27    19    18 1
    28    17    18 2
    29     3    26 1
    30     8    27 1
    31     9    28 1
    32    10    29 1
    33    10    30 1
    34    11    31 1
    35    11    32 1
    36    12    33 1
    37    12    34 1
    38    13    35 1
    39    13    36 1
    40    14    37 1
    41    15    38 1
    42    15    39 1
    43    15    40 1
    44    17    41 1
    45    20    42 1
    46    20    43 1
    47    20    44 1
    48    22    45 1
    49    22    46 1
    50    23    47 1
    51    24    48 1
    52    24    49 1
    53    25    50 1
    54    25    51 1
@<TRIPOS>SUBSTRUCTURE
     1 LCI         1 TEMP              0 ****  ****    0 ROOT
