@<TRIPOS>MOLECULE
LCL
   32    32     1     0     0
SMALL
bcc


@<TRIPOS>ATOM
      1 C1           0.0000     0.0000     0.0000 c3         1 LCL       0.004100
      2 Cl1          1.8030     0.0000     0.0000 cl         1 LCL      -0.053400
      3 Cl2         -0.6020     0.0000     1.7000 cl         1 LCL      -0.053400
      4 C2          -0.5020     1.2310    -0.7110 c          1 LCL       0.548100
      5 O2          -1.2730     1.9830    -0.1500 o          1 LCL      -0.624100
      6 N2          -0.0960     1.4970    -1.9680 ns         1 LCL      -0.167900
      7 C3          -0.5840     2.6930    -2.6580 c3         1 LCL       0.014700
      8 C4           0.2880     3.8920    -2.2790 c3         1 LCL       0.203400
      9 O4           1.6150     3.6890    -2.7680 oh         1 LCL      -0.577800
     10 C5          -0.5180     2.4720    -4.1700 c3         1 LCL       0.231400
     11 O5           0.8340     2.2170    -4.5560 oh         1 LCL      -0.561800
     12 C6          -1.3770     1.2910    -4.5440 ca         1 LCL      -0.082300
     13 C7          -2.6430     1.4930    -5.0600 ca         1 LCL      -0.106000
     14 C8          -3.4310     0.4100    -5.4020 ca         1 LCL      -0.009000
     15 C9          -2.9530    -0.8760    -5.2270 ca         1 LCL      -0.445200
     16 N9          -3.7960    -2.0340    -5.5930 no         1 LCL       1.045200
     17 O9A         -4.9130    -1.8570    -6.0470 o          1 LCL      -0.447500
     18 O9B         -3.3750    -3.1680    -5.4400 o          1 LCL      -0.447500
     19 C10         -1.6860    -1.0770    -4.7120 ca         1 LCL      -0.009000
     20 C11         -0.8960     0.0060    -4.3740 ca         1 LCL      -0.106000
     21 H1          -0.3610    -0.8840    -0.5110 h2         1 LCL       0.055700
     22 H2           0.5770     0.9040    -2.4110 hn         1 LCL       0.198500
     23 H3          -1.6090     2.8850    -2.3660 h1         1 LCL       0.067700
     24 H4           0.3120     3.9940    -1.2010 h1         1 LCL       0.001700
     25 H5          -0.1250     4.7920    -2.7180 h1         1 LCL       0.001700
     26 H6           2.1720     4.3880    -2.4680 ho         1 LCL       0.389000
     27 H7          -0.8790     3.3570    -4.6810 h1         1 LCL       0.018700
     28 H8           0.9620     2.4870    -5.4510 ho         1 LCL       0.397000
     29 H9          -3.0170     2.5000    -5.1960 ha         1 LCL       0.123000
     30 H10         -4.4240     0.5690    -5.8070 ha         1 LCL       0.134500
     31 H13         -1.3110    -2.0840    -4.5770 ha         1 LCL       0.134500
     32 H14          0.0960    -0.1520    -3.9700 ha         1 LCL       0.123000
@<TRIPOS>BOND
     1     1     2 1   
     2     1     3 1   
     3     1     4 1   
     4     1    21 1   
     5     4     5 2   
     6     4     6 1   
     7     6     7 1   
     8     6    22 1   
     9     7     8 1   
    10     7    10 1   
    11     7    23 1   
    12     8     9 1   
    13     8    24 1   
    14     8    25 1   
    15     9    26 1   
    16    10    11 1   
    17    10    12 1   
    18    10    27 1   
    19    11    28 1   
    20    12    13 ar  
    21    12    20 ar  
    22    13    14 ar  
    23    13    29 1   
    24    14    15 ar  
    25    14    30 1   
    26    15    16 1   
    27    15    19 ar  
    28    16    17 1   
    29    16    18 1   
    30    19    20 ar  
    31    19    31 1   
    32    20    32 1   
@<TRIPOS>SUBSTRUCTURE
     1 LCL         1 TEMP              0 ****  ****    0 ROOT
