@<TRIPOS>MOLECULE
molecule
   46    47     1     0     0
SMALL
bcc


@<TRIPOS>ATOM
      1 C1           0.0000     0.0000     0.0000 ca         1 LCM      -0.127000
      2 C2           1.3840     0.0000     0.0000 ca         1 LCM       0.055100
      3 C3           2.0820     0.0000     1.2040 ca         1 LCM       0.158600
      4 C4           1.3750    -0.0010     2.4130 ca         1 LCM      -0.158100
      5 C5          -0.0230    -0.0010     2.3970 ca         1 LCM      -0.102000
      6 C6          -0.6990    -0.0010     1.1970 ca         1 LCM      -0.136000
      7 C7           2.1010    -0.0020     3.6970 c          1 LCM       0.672700
      8 N8           1.4180    -0.0030     4.8580 ns         1 LCM      -0.589900
      9 O9           3.3170    -0.0020     3.7070 o          1 LCM      -0.583100
     10 C10          2.1400    -0.0040     6.1330 c3         1 LCM       0.115000
     11 C11          1.1360    -0.0050     7.2870 c3         1 LCM      -0.098400
     12 C12          1.8900    -0.0060     8.6200 c3         1 LCM      -0.098400
     13 C13          0.8860    -0.0060     9.7740 c3         1 LCM       0.115000
     14 N14          1.6080    -0.0070    11.0490 ns         1 LCM      -0.589900
     15 C15          0.9240    -0.0070    12.2100 c          1 LCM       0.672700
     16 C16          1.6510    -0.0080    13.4940 ca         1 LCM      -0.158100
     17 O17         -0.2920    -0.0080    12.2000 o          1 LCM      -0.583100
     18 C18          0.9450    -0.0090    14.7030 ca         1 LCM       0.158600
     19 C19          1.6420    -0.0100    15.9070 ca         1 LCM       0.055100
     20 C20          3.0260    -0.0110    15.9070 ca         1 LCM      -0.127000
     21 C21          3.7240    -0.0100    14.7100 ca         1 LCM      -0.136000
     22 C22          3.0490    -0.0150    13.5100 ca         1 LCM      -0.102000
     23 O23         -0.4130    -0.0080    14.6990 oh         1 LCM      -0.483100
     24 O24          0.9620    -0.0110    17.0860 oh         1 LCM      -0.516100
     25 O25          3.4390    -0.0000     1.2080 oh         1 LCM      -0.483100
     26 O26          2.0640     0.0010    -1.1790 oh         1 LCM      -0.516100
     27 H1          -0.5390     0.0000    -0.9390 ha         1 LCM       0.143500
     28 H5          -0.5750    -0.0020     3.3290 ha         1 LCM       0.130000
     29 H6          -1.7820    -0.0010     1.1890 ha         1 LCM       0.138000
     30 HN8          0.4170    -0.0230     4.8500 hn         1 LCM       0.312500
     31 H10          2.7630     0.8810     6.1970 h1         1 LCM       0.054950
     32 H10A         2.7620    -0.8890     6.1950 h1         1 LCM       0.054950
     33 H11          0.5140    -0.8890     7.2240 hc         1 LCM       0.049700
     34 H11A         0.5130     0.8800     7.2250 hc         1 LCM       0.049700
     35 H12          2.5120    -0.8900     8.6820 hc         1 LCM       0.049700
     36 H12A         2.5120     0.8790     8.6830 hc         1 LCM       0.049700
     37 H13          0.2630     0.8780     9.7120 h1         1 LCM       0.054950
     38 H13A         0.2630    -0.8910     9.7100 h1         1 LCM       0.054950
     39 HN14         2.6090     0.0120    11.0570 hn         1 LCM       0.312500
     40 H20          3.5650    -0.0100    16.8460 ha         1 LCM       0.143500
     41 H21          4.8080    -0.0130    14.7180 ha         1 LCM       0.138000
     42 H22          3.6010    -0.0140    12.5780 ha         1 LCM       0.130000
     43 HO23        -0.7270     0.8260    15.0070 ho         1 LCM       0.433500
     44 HO24         1.0150    -0.8670    17.4780 ho         1 LCM       0.427000
     45 HO25         3.7540     0.8330     0.9010 ho         1 LCM       0.433500
     46 HO26         2.0110    -0.8540    -1.5730 ho         1 LCM       0.427000
@<TRIPOS>BOND
     1     1     2 ar
     2     1     6 ar
     3     2     3 ar
     4     2    26 1
     5     3     4 ar
     6     3    25 1
     7     4     5 ar
     8     4     7 1
     9     5     6 ar
    10     7     8 1
    11     7     9 2
    12     8    10 1
    13    10    11 1
    14    11    12 1
    15    12    13 1
    16    13    14 1
    17    14    15 1
    18    15    16 1
    19    15    17 2
    20    16    18 ar
    21    16    22 ar
    22    18    19 ar
    23    18    23 1
    24    19    20 ar
    25    19    24 1
    26    20    21 ar
    27    21    22 ar
    28     1    27 1
    29     5    28 1
    30     6    29 1
    31     8    30 1
    32    10    31 1
    33    10    32 1
    34    11    33 1
    35    11    34 1
    36    12    35 1
    37    12    36 1
    38    13    37 1
    39    13    38 1
    40    14    39 1
    41    20    40 1
    42    21    41 1
    43    22    42 1
    44    23    43 1
    45    24    44 1
    46    25    45 1
    47    26    46 1
@<TRIPOS>SUBSTRUCTURE
     1 LCM         1 TEMP              0 ****  ****    0 ROOT
