@<TRIPOS>MOLECULE
LCO
    4     3     1     0     0
SMALL
bcc


@<TRIPOS>ATOM
      1 CL          0.0210    0.0220    0.5320 cl        1 LCO      0.913000
      2 O1         -1.3740   -0.6200   -0.2290 o         1 LCO     -0.638000
      3 O2          0.0230    1.6590    0.0250 o         1 LCO     -0.638000
      4 O3          1.3070   -0.6670   -0.3680 o         1 LCO     -0.638000
@<TRIPOS>BOND
     1    1    2 1   
     2    1    3 1   
     3    1    4 1   
@<TRIPOS>SUBSTRUCTURE
     1 LCO         1 TEMP              0 ****  ****    0 ROOT
