@<TRIPOS>MOLECULE
LCP
    5     4     1     0     0
SMALL
bcc


@<TRIPOS>ATOM
      1 CL         -0.0000    0.0000    0.0000 cl        1 LCP      1.011000
      2 O1          0.0000   -1.4440   -1.0210 o         1 LCP     -0.503000
      3 O2         -0.0000    1.4440   -1.0210 o         1 LCP     -0.503000
      4 O3         -1.4440   -0.0000    1.0210 o         1 LCP     -0.503000
      5 O4          1.4440    0.0000    1.0210 o         1 LCP     -0.503000
@<TRIPOS>BOND
     1    1    2 1
     2    1    3 1
     3    1    4 1
     4    1    5 1
@<TRIPOS>SUBSTRUCTURE
     1 LCP         1 TEMP              0 ****  ****    0 ROOT
