@<TRIPOS>MOLECULE
LCR
   51    53     1     0     0
SMALL
bcc


@<TRIPOS>ATOM
      1 OAC          0.0000     0.0000     0.0000 o          1 LCR      -0.891300
      2 CBA          1.2080     0.0000     0.0000 c          1 LCR       0.976600
      3 OAD          1.8800     0.0000     1.1620 o          1 LCR      -0.891300
      4 CAZ          1.9610    -0.0070    -1.3060 c3         1 LCR       0.091400
      5 OAB          1.0320    -0.0130    -2.3910 os         1 LCR      -0.362600
      6 CAO          1.6460    -0.0190    -3.6810 c3         1 LCR       0.188400
      7 CAL          0.5630    -0.0240    -4.7620 c3         1 LCR       0.151800
      8 NAF         -0.1960     1.2310    -4.7010 n3         1 LCR      -0.506600
      9 CAJ         -1.3890     1.1680    -5.5580 c3         1 LCR       0.149800
     10 CAH         -2.1940     2.4610    -5.4040 c3         1 LCR       0.138300
     11 CAI          0.6490     2.3770    -5.0630 c3         1 LCR       0.149800
     12 CAG         -0.1540     3.6700    -4.9100 c3         1 LCR       0.138300
     13 NAE         -1.3480     3.6070    -5.7660 n3         1 LCR      -0.549600
     14 CAK         -2.1070     4.8630    -5.7040 c3         1 LCR       0.244100
     15 CAM         -1.2360     6.0000    -6.1710 ca         1 LCR      -0.079300
     16 CAP         -1.2850     7.2200    -5.5220 ca         1 LCR      -0.077000
     17 CAT         -0.4870     8.2630    -5.9490 ca         1 LCR      -0.104500
     18 CAX          0.3620     8.0880    -7.0280 ca         1 LCR      -0.032600
     19 ClAA         1.3660     9.3990    -7.5660 cl         1 LCR      -0.047400
     20 CAU          0.4100     6.8680    -7.6770 ca         1 LCR      -0.104500
     21 CAQ         -0.3850     5.8220    -7.2460 ca         1 LCR      -0.077000
     22 CAN         -3.3200     4.7610    -6.5930 ca         1 LCR      -0.083300
     23 CAR         -4.5270     5.2910    -6.1780 ca         1 LCR      -0.088000
     24 CAV         -5.6400     5.1960    -6.9940 ca         1 LCR      -0.107000
     25 CAY         -5.5440     4.5730    -8.2250 ca         1 LCR      -0.107000
     26 CAW         -4.3360     4.0430    -8.6380 ca         1 LCR      -0.107000
     27 CAS         -3.2230     4.1420    -7.8260 ca         1 LCR      -0.088000
     28 H2           2.5830    -0.8920    -1.3590 h1         1 LCR      -0.020800
     29 H3           2.5830     0.8770    -1.3680 h1         1 LCR      -0.020800
     30 H4           2.2620    -0.9050    -3.7830 h1         1 LCR      -0.020800
     31 H5           2.2630     0.8640    -3.7920 h1         1 LCR      -0.020800
     32 H6          -0.1070    -0.8600    -4.5980 h1         1 LCR       0.005200
     33 H7           1.0260    -0.1190    -5.7370 h1         1 LCR       0.005200
     34 H9          -1.0850     1.0540    -6.5910 h1         1 LCR       0.011450
     35 H10         -2.0020     0.3250    -5.2600 h1         1 LCR       0.011450
     36 H11         -2.5180     2.5640    -4.3750 h1         1 LCR       0.024200
     37 H12         -3.0560     2.4290    -6.0580 h1         1 LCR       0.024200
     38 H13          0.9740     2.2740    -6.0910 h1         1 LCR       0.011450
     39 H14          1.5120     2.4090    -4.4080 h1         1 LCR       0.011450
     40 H15         -0.4580     3.7850    -3.8760 h1         1 LCR       0.024200
     41 H16          0.4580     4.5120    -5.2070 h1         1 LCR       0.024200
     42 H18         -2.4220     5.0440    -4.6840 h1         1 LCR       0.024700
     43 H19         -1.9500     7.3580    -4.6780 ha         1 LCR       0.118000
     44 H20         -0.5260     9.2190    -5.4400 ha         1 LCR       0.111000
     45 H21          1.0760     6.7290    -8.5210 ha         1 LCR       0.111000
     46 H22         -0.3460     4.8670    -7.7550 ha         1 LCR       0.118000
     47 H23         -4.6020     5.7790    -5.2140 ha         1 LCR       0.114500
     48 H24         -6.5860     5.6120    -6.6690 ha         1 LCR       0.099000
     49 H25         -6.4160     4.4980    -8.8630 ha         1 LCR       0.097000
     50 H26         -4.2610     3.5570    -9.6030 ha         1 LCR       0.099000
     51 H27         -2.2770     3.7260    -8.1510 ha         1 LCR       0.114500
@<TRIPOS>BOND
     1     1     2 1   
     2     2     3 1   
     3     2     4 1   
     4     4     5 1   
     5     4    28 1   
     6     4    29 1   
     7     5     6 1   
     8     6     7 1   
     9     6    30 1   
    10     6    31 1   
    11     7     8 1   
    12     7    32 1   
    13     7    33 1   
    14     8     9 1   
    15     8    11 1   
    16     9    10 1   
    17     9    34 1   
    18     9    35 1   
    19    10    13 1   
    20    10    36 1   
    21    10    37 1   
    22    11    12 1   
    23    11    38 1   
    24    11    39 1   
    25    12    13 1   
    26    12    40 1   
    27    12    41 1   
    28    13    14 1   
    29    14    15 1   
    30    14    22 1   
    31    14    42 1   
    32    15    16 ar  
    33    15    21 ar  
    34    16    17 ar  
    35    16    43 1   
    36    17    18 ar  
    37    17    44 1   
    38    18    19 1   
    39    18    20 ar  
    40    20    21 ar  
    41    20    45 1   
    42    21    46 1   
    43    22    23 ar  
    44    22    27 ar  
    45    23    24 ar  
    46    23    47 1   
    47    24    25 ar  
    48    24    48 1   
    49    25    26 ar  
    50    25    49 1   
    51    26    27 ar  
    52    26    50 1   
    53    27    51 1   
@<TRIPOS>SUBSTRUCTURE
     1 LCR         1 TEMP              0 ****  ****    0 ROOT
