@<TRIPOS>MOLECULE
molecule
   51    53     1     0     0
SMALL
bcc


@<TRIPOS>ATOM
      1 OAC          0.0000     0.0000     0.0000 o          1 LCR      -0.836800
      2 CBA          1.2080     0.0000     0.0000 c          1 LCR       0.896600
      3 OAD          1.8800     0.0000     1.1620 o          1 LCR      -0.836800
      4 CAZ          1.9610    -0.0070    -1.3060 c3         1 LCR       0.022400
      5 OAB          1.0320    -0.0130    -2.3910 os         1 LCR      -0.381600
      6 CAO          1.6460    -0.0190    -3.6810 c3         1 LCR       0.134400
      7 CAL          0.5630    -0.0240    -4.7620 c3         1 LCR       0.167800
      8 NAF         -0.1960     1.2310    -4.7010 n3         1 LCR      -0.699600
      9 CAJ         -1.3890     1.1680    -5.5580 c3         1 LCR       0.165800
     10 CAH         -2.1940     2.4610    -5.4040 c3         1 LCR       0.157800
     11 CAI          0.6490     2.3770    -5.0630 c3         1 LCR       0.165800
     12 CAG         -0.1540     3.6700    -4.9100 c3         1 LCR       0.157800
     13 NAE         -1.3480     3.6070    -5.7660 n3         1 LCR      -0.739600
     14 CAK         -2.1070     4.8630    -5.7040 c3         1 LCR       0.262100
     15 CAM         -1.2360     6.0000    -6.1710 ca         1 LCR      -0.069300
     16 CAP         -1.2850     7.2200    -5.5220 ca         1 LCR      -0.103500
     17 CAT         -0.4870     8.2630    -5.9490 ca         1 LCR      -0.128500
     18 CAX          0.3620     8.0880    -7.0280 ca         1 LCR       0.026400
     19 ClAA         1.3660     9.3990    -7.5660 cl         1 LCR      -0.126400
     20 CAU          0.4100     6.8680    -7.6770 ca         1 LCR      -0.128500
     21 CAQ         -0.3850     5.8220    -7.2460 ca         1 LCR      -0.103500
     22 CAN         -3.3200     4.7610    -6.5930 ca         1 LCR      -0.075300
     23 CAR         -4.5270     5.2910    -6.1780 ca         1 LCR      -0.111500
     24 CAV         -5.6400     5.1960    -6.9940 ca         1 LCR      -0.135000
     25 CAY         -5.5440     4.5730    -8.2250 ca         1 LCR      -0.132000
     26 CAW         -4.3360     4.0430    -8.6380 ca         1 LCR      -0.135000
     27 CAS         -3.2230     4.1420    -7.8260 ca         1 LCR      -0.111500
     28 H2           2.5830    -0.8920    -1.3590 h1         1 LCR       0.008200
     29 H3           2.5830     0.8770    -1.3680 h1         1 LCR       0.008200
     30 H4           2.2620    -0.9050    -3.7830 h1         1 LCR       0.005700
     31 H5           2.2630     0.8640    -3.7920 h1         1 LCR       0.005700
     32 H6          -0.1070    -0.8600    -4.5980 h1         1 LCR       0.030700
     33 H7           1.0260    -0.1190    -5.7370 h1         1 LCR       0.030700
     34 H9          -1.0850     1.0540    -6.5910 h1         1 LCR       0.036200
     35 H10         -2.0020     0.3250    -5.2600 h1         1 LCR       0.036200
     36 H11         -2.5180     2.5640    -4.3750 h1         1 LCR       0.048450
     37 H12         -3.0560     2.4290    -6.0580 h1         1 LCR       0.048450
     38 H13          0.9740     2.2740    -6.0910 h1         1 LCR       0.036200
     39 H14          1.5120     2.4090    -4.4080 h1         1 LCR       0.036200
     40 H15         -0.4580     3.7850    -3.8760 h1         1 LCR       0.048450
     41 H16          0.4580     4.5120    -5.2070 h1         1 LCR       0.048450
     42 H18         -2.4220     5.0440    -4.6840 h1         1 LCR       0.044700
     43 H19         -1.9500     7.3580    -4.6780 ha         1 LCR       0.146500
     44 H20         -0.5260     9.2190    -5.4400 ha         1 LCR       0.139500
     45 H21          1.0760     6.7290    -8.5210 ha         1 LCR       0.139500
     46 H22         -0.3460     4.8670    -7.7550 ha         1 LCR       0.146500
     47 H23         -4.6020     5.7790    -5.2140 ha         1 LCR       0.139000
     48 H24         -6.5860     5.6120    -6.6690 ha         1 LCR       0.125000
     49 H25         -6.4160     4.4980    -8.8630 ha         1 LCR       0.122000
     50 H26         -4.2610     3.5570    -9.6030 ha         1 LCR       0.125000
     51 H27         -2.2770     3.7260    -8.1510 ha         1 LCR       0.139000
@<TRIPOS>BOND
     1    19    18 1
     2    20    21 ar
     3    20    18 ar
     4    21    15 ar
     5    18    17 ar
     6    11    12 1
     7    11     8 1
     8     7     8 1
     9     7     6 1
    10     5     6 1
    11     5     4 1
    12    12    13 1
    13     8     9 1
    14     9    10 1
    15    13    10 1
    16    13    14 1
    17     1     2 1
    18    15    14 1
    19    15    16 ar
    20    17    16 ar
    21    27    26 ar
    22    27    22 ar
    23     4     2 1
    24    26    25 ar
    25     2     3 1
    26    14    22 1
    27    22    23 ar
    28    25    24 ar
    29    23    24 ar
    30     4    28 1
    31     4    29 1
    32     6    30 1
    33     6    31 1
    34     7    32 1
    35     7    33 1
    36     9    34 1
    37     9    35 1
    38    10    36 1
    39    10    37 1
    40    11    38 1
    41    11    39 1
    42    12    40 1
    43    12    41 1
    44    14    42 1
    45    16    43 1
    46    17    44 1
    47    20    45 1
    48    21    46 1
    49    23    47 1
    50    24    48 1
    51    25    49 1
    52    26    50 1
    53    27    51 1
@<TRIPOS>SUBSTRUCTURE
     1 LCR         1 TEMP              0 ****  ****    0 ROOT
