@<TRIPOS>MOLECULE
LCS
   34    35     1     0     0
SMALL
bcc


@<TRIPOS>ATOM
      1 N1           0.0000     0.0000     0.0000 nb         1 LCS      -0.587000
      2 C2           1.3180     0.0000     0.0000 ca         1 LCS       0.273600
      3 C2A          2.0640     0.0010    -1.3090 c3         1 LCS      -0.021400
      4 C3           2.0260     0.0000     1.1930 ca         1 LCS      -0.017200
      5 O3           3.3850     0.0010     1.1890 oh         1 LCS      -0.511100
      6 C4           1.3250    -0.0010     2.3950 ca         1 LCS      -0.147300
      7 C4A          2.0540    -0.0010     3.7140 c3         1 LCS       0.189100
      8 C5          -0.0600    -0.0020     2.3490 ca         1 LCS      -0.109600
      9 C6          -0.6950    -0.0020     1.1210 ca         1 LCS       0.414200
     10 C5A         -0.8650    -0.0040     3.6230 c3         1 LCS       0.307700
     11 O4P         -2.2540    -0.1280     3.3090 os         1 LCS      -0.473200
     12 P           -3.4070    -0.1640     4.4320 p5         1 LCS       0.660900
     13 O1P         -3.1160    -1.2430     5.4020 o          1 LCS      -0.746167
     14 O2P         -3.4540     1.2510     5.1990 o          1 LCS      -0.746167
     15 O3P         -4.8300    -0.4410     3.7310 o          1 LCS      -0.746167
     16 N            2.1690    -1.3750     4.2080 n2         1 LCS      -0.313900
     17 CA           3.3240    -1.9090     4.3530 ce         1 LCS       0.206300
     18 C            3.6370    -3.2440     4.9270 c          1 LCS       0.519200
     19 O            2.8260    -4.0400     5.3550 o          1 LCS      -0.623500
     20 ND           4.9680    -3.4220     4.8950 ns         1 LCS      -0.078400
     21 OG           5.6310    -2.3100     4.3370 os         1 LCS      -0.315900
     22 CB           4.6640    -1.3210     3.9660 c3         1 LCS       0.135100
     23 H2A1         1.3590    -0.0890    -2.1260 hc         1 LCS      -0.004967
     24 H2A2         2.6160     0.9280    -1.4090 hc         1 LCS      -0.004967
     25 H2A3         2.7530    -0.8340    -1.3330 hc         1 LCS      -0.004967
     26 HO3          3.6980     0.8530     0.9320 ho         1 LCS       0.384000
     27 H4A1         3.0430     0.4190     3.5810 h1         1 LCS       0.025200
     28 H4A2         1.5030     0.5950     4.4310 h1         1 LCS       0.025200
     29 H6          -1.7770    -0.0030     1.0790 h4         1 LCS       0.043100
     30 H5A1        -0.6970     0.9220     4.1580 h1         1 LCS       0.003700
     31 H5A2        -0.5590    -0.8390     4.2420 h1         1 LCS       0.003700
     32 HND          5.4330    -4.2440     5.2280 hn         1 LCS       0.198500
     33 HB1          4.7010    -1.1440     2.8980 h1         1 LCS       0.031200
     34 HB2          4.8410    -0.4020     4.5120 h1         1 LCS       0.031200
@<TRIPOS>BOND
     1     1     2 ar  
     2     1     9 ar  
     3     2     3 1   
     4     2     4 ar  
     5     3    23 1   
     6     3    24 1   
     7     3    25 1   
     8     4     5 1   
     9     4     6 ar  
    10     5    26 1   
    11     6     7 1   
    12     6     8 ar  
    13     7    16 1   
    14     7    27 1   
    15     7    28 1   
    16     8     9 ar  
    17     8    10 1   
    18     9    29 1   
    19    10    11 1   
    20    10    30 1   
    21    10    31 1   
    22    11    12 1   
    23    12    13 1   
    24    12    14 1   
    25    12    15 1   
    26    16    17 2   
    27    17    18 1   
    28    17    22 1   
    29    18    19 2   
    30    18    20 1   
    31    20    21 1   
    32    20    32 1   
    33    21    22 1   
    34    22    33 1   
    35    22    34 1   
@<TRIPOS>SUBSTRUCTURE
     1 LCS         1 TEMP              0 ****  ****    0 ROOT
