@<TRIPOS>MOLECULE
LCT
   26    27     1     0     0
SMALL
bcc


@<TRIPOS>ATOM
      1 C1           0.0000     0.0000     0.0000 ca         1 LCT      -0.009000
      2 C2           1.3830     0.0000     0.0000 ca         1 LCT      -0.447200
      3 C3           2.0820     0.0000     1.1940 ca         1 LCT      -0.009000
      4 C4           1.4000     0.0010     2.3950 ca         1 LCT      -0.102500
      5 C5           0.0050     0.0020     2.4010 ca         1 LCT      -0.051500
      6 C6          -0.6930     0.0010     1.1920 ca         1 LCT      -0.102500
      7 O34         -1.8580     0.0070     8.1970 o          1 LCT      -0.547100
      8 C32         -3.0150     0.0070     7.8310 c          1 LCT       0.533100
      9 C36         -4.1270     0.0080     8.8480 c3         1 LCT      -0.063100
     10 C22         -2.2800     0.0040     5.5770 cc         1 LCT       0.390300
     11 N23         -1.0080     0.0040     5.8470 nd         1 LCT      -0.291000
     12 N24         -0.2020     0.0030     4.8750 nd         1 LCT      -0.228000
     13 S21         -2.4850    -0.0040     3.8770 ss         1 LCT      -0.375800
     14 C19         -0.7310     0.0030     3.6830 cc         1 LCT       0.430900
     15 N13          2.1200    -0.0010    -1.2830 no         1 LCT       1.045200
     16 O15          1.5090    -0.0020    -2.3370 o          1 LCT      -0.448500
     17 O17          3.3390    -0.0020    -1.2860 o          1 LCT      -0.448500
     18 H1          -0.5400    -0.0000    -0.9390 ha         1 LCT       0.135000
     19 H2           3.1650    -0.0000     1.1880 ha         1 LCT       0.135000
     20 H3           1.9480     0.0010     3.3290 ha         1 LCT       0.130000
     21 H4          -1.7760     0.0010     1.1900 ha         1 LCT       0.130000
     22 H5          -4.7380    -0.8760     8.7160 hc         1 LCT       0.027700
     23 H6          -3.7040     0.0090     9.8450 hc         1 LCT       0.027700
     24 H7          -4.7380     0.8930     8.7140 hc         1 LCT       0.027700
     25 H8          -4.2600     0.0050     6.2130 hn         1 LCT       0.176500
     26 N30         -3.3060     0.0060     6.5150 ns         1 LCT      -0.066400
@<TRIPOS>BOND
     1     1     2 ar  
     2     1     6 ar  
     3     1    18 1   
     4     2     3 ar  
     5     2    15 1   
     6     3     4 ar  
     7     3    19 1   
     8     4     5 ar  
     9     4    20 1   
    10     5     6 ar  
    11     5    14 1   
    12     6    21 1   
    13     7     8 2   
    14     8     9 1   
    15     8    26 1   
    16     9    22 1   
    17     9    23 1   
    18     9    24 1   
    19    10    11 2   
    20    10    13 1   
    21    10    26 1   
    22    11    12 1   
    23    12    14 2   
    24    13    14 1   
    25    15    16 1   
    26    15    17 1   
    27    25    26 1   
@<TRIPOS>SUBSTRUCTURE
     1 LCT         1 TEMP              0 ****  ****    0 ROOT
