@<TRIPOS>MOLECULE
molecule
   15    15     1     0     0
SMALL
bcc


@<TRIPOS>ATOM
      1 C1           0.0000     0.0000     0.0000 c3         1 LCY      -0.176400
      2 C2           1.5420     0.0000     0.0000 c3         1 LCY      -0.176400
      3 C3           1.8970     0.0000     1.4710 c          1 LCY       0.704500
      4 O2           3.0220    -0.0000     1.9220 o          1 LCY      -0.586500
      5 N1           0.7710     0.0000     2.1960 n          1 LCY      -0.492400
      6 C4          -0.3550     0.0000     1.4710 c          1 LCY       0.704500
      7 O1          -1.4800     0.0000     1.9220 o          1 LCY      -0.586500
      8 C5           0.7710    -0.0000     3.6610 c3         1 LCY       0.088300
      9 H1          -0.3800    -0.8930    -0.4820 hc         1 LCY       0.086700
     10 H1A         -0.3800     0.8930    -0.4820 hc         1 LCY       0.086700
     11 H2           1.9220     0.8930    -0.4820 hc         1 LCY       0.086700
     12 H2A          1.9220    -0.8930    -0.4820 hc         1 LCY       0.086700
     13 H5          -0.1140    -0.5110     4.0220 h1         1 LCY       0.058033
     14 H5A          1.6560    -0.5110     4.0220 h1         1 LCY       0.058033
     15 H5B          0.7710     1.0210     4.0220 h1         1 LCY       0.058033
@<TRIPOS>BOND
     1     1     2 1
     2     1     6 1
     3     2     3 1
     4     3     4 2
     5     3     5 1
     6     5     6 1
     7     5     8 1
     8     6     7 2
     9     1     9 1
    10     1    10 1
    11     2    11 1
    12     2    12 1
    13     8    13 1
    14     8    14 1
    15     8    15 1
@<TRIPOS>SUBSTRUCTURE
     1 LCY         1 TEMP              0 ****  ****    0 ROOT
