@<TRIPOS>MOLECULE
LD1
   39    43     1     0     0
SMALL
bcc


@<TRIPOS>ATOM
      1 C1           0.0000     0.0000     0.0000 ca         1 LD1       0.136100
      2 C2           1.3960     0.0000     0.0000 ca         1 LD1      -0.162400
      3 C3           2.0900     0.0000     1.1950 ca         1 LD1      -0.049000
      4 C4           1.3860    -0.0010     2.4040 ca         1 LD1      -0.169900
      5 C5          -0.0110    -0.0020     2.3950 ca         1 LD1      -0.069000
      6 C6          -0.6960    -0.0020     1.1990 ca         1 LD1      -0.107000
      7 O7          -0.6660     0.0070    -1.1860 os         1 LD1      -0.299900
      8 C8          -0.0470     0.7060    -2.2680 c3         1 LD1       0.150400
      9 C9           1.4090     0.3240    -2.3500 c          1 LD1       0.563500
     10 N10          2.0820    -0.0010    -1.2230 ns         1 LD1      -0.019100
     11 O11          1.9740     0.3050    -3.4230 o          1 LD1      -0.645500
     12 C12          2.1170    -0.0020     3.6840 ce         1 LD1       0.503900
     13 C13          1.2990    -0.0040     4.9420 c3         1 LD1       0.032400
     14 S14          2.0800    -1.0370     6.2120 ss         1 LD1      -0.308400
     15 C15          3.7460    -0.5070     5.9830 cc         1 LD1       0.266800
     16 N16          4.2050    -0.0690     4.7620 na         1 LD1       0.322400
     17 N17          3.4020    -0.0070     3.6280 n2         1 LD1      -0.602100
     18 N18          4.7330    -0.4390     6.8220 nd         1 LD1      -0.247000
     19 N19          5.7810     0.0070     6.2160 nd         1 LD1      -0.341000
     20 C20          5.5120     0.2450     4.9580 cc         1 LD1       0.270400
     21 C21          1.1770     1.4080     5.4560 ca         1 LD1      -0.103300
     22 C22         -0.0700     1.9890     5.5910 ca         1 LD1      -0.096000
     23 C23         -0.1820     3.2830     6.0630 ca         1 LD1      -0.084500
     24 C24          0.9530     3.9970     6.4000 ca         1 LD1      -0.087000
     25 C25          2.2000     3.4160     6.2650 ca         1 LD1      -0.084500
     26 C26          2.3120     2.1190     5.7980 ca         1 LD1      -0.096000
     27 H3           3.1730     0.0010     1.1950 ha         1 LD1       0.134000
     28 H5          -0.5580    -0.0030     3.3310 ha         1 LD1       0.116000
     29 H6          -1.7790    -0.0030     1.1950 ha         1 LD1       0.124000
     30 H8          -0.5400     0.4420    -3.1950 h1         1 LD1       0.042200
     31 H8A         -0.1300     1.7730    -2.1000 h1         1 LD1       0.042200
     32 HN10         2.9940    -0.4070    -1.2840 hn         1 LD1       0.188500
     33 H13          0.3130    -0.3950     4.7230 h1         1 LD1       0.097700
     34 H20          6.2010     0.6240     4.2130 h5         1 LD1       0.039100
     35 H22         -0.9590     1.4300     5.3270 ha         1 LD1       0.108000
     36 H23         -1.1590     3.7380     6.1690 ha         1 LD1       0.108500
     37 H24          0.8650     5.0120     6.7680 ha         1 LD1       0.107000
     38 H25          3.0890     3.9740     6.5310 ha         1 LD1       0.108500
     39 H26          3.2890     1.6640     5.6920 ha         1 LD1       0.108000
@<TRIPOS>BOND
     1     1     2 ar  
     2     1     6 ar  
     3     1     7 1   
     4     2     3 ar  
     5     2    10 1   
     6     3     4 ar  
     7     3    27 1   
     8     4     5 ar  
     9     4    12 1   
    10     5     6 ar  
    11     5    28 1   
    12     6    29 1   
    13     7     8 1   
    14     8     9 1   
    15     8    30 1   
    16     8    31 1   
    17     9    10 1   
    18     9    11 2   
    19    10    32 1   
    20    12    13 1   
    21    12    17 2   
    22    13    14 1   
    23    13    21 1   
    24    13    33 1   
    25    14    15 1   
    26    15    16 1   
    27    15    18 2   
    28    16    17 1   
    29    16    20 1   
    30    18    19 1   
    31    19    20 2   
    32    20    34 1   
    33    21    22 ar  
    34    21    26 ar  
    35    22    23 ar  
    36    22    35 1   
    37    23    24 ar  
    38    23    36 1   
    39    24    25 ar  
    40    24    37 1   
    41    25    26 ar  
    42    25    38 1   
    43    26    39 1   
@<TRIPOS>SUBSTRUCTURE
     1 LD1         1 TEMP              0 ****  ****    0 ROOT
