@<TRIPOS>MOLECULE
molecule
   41    44     1     0     0
SMALL
bcc


@<TRIPOS>ATOM
      1 C1           0.0000     0.0000     0.0000 ca         1 LD2       0.118100
      2 C2           1.3970     0.0000     0.0000 ca         1 LD2      -0.009400
      3 C3           2.0900     0.0000     1.1940 ca         1 LD2      -0.088000
      4 C4           1.3880    -0.0010     2.4030 ca         1 LD2      -0.143900
      5 C5          -0.0100    -0.0020     2.3960 ca         1 LD2      -0.095000
      6 C6          -0.6950    -0.0020     1.1990 ca         1 LD2      -0.131000
      7 O7          -0.6670     0.0060    -1.1850 os         1 LD2      -0.319900
      8 C8          -0.0480     0.7060    -2.2670 c3         1 LD2       0.072400
      9 C9           1.4080     0.3250    -2.3510 c          1 LD2       0.667500
     10 N10          2.0810    -0.0010    -1.2240 ns         1 LD2      -0.463100
     11 O11          1.9720     0.3050    -3.4240 o          1 LD2      -0.606500
     12 C12          2.1200    -0.0010     3.6820 ce         1 LD2       0.483900
     13 C13          1.3620    -0.0020     4.9840 c3         1 LD2      -0.129400
     14 C15          5.0970     0.6900     5.3780 cc         1 LD2       0.495800
     15 N16          4.1140    -0.1320     4.8960 na         1 LD2      -0.098600
     16 N17          3.4180     0.0000     3.6880 n2         1 LD2      -0.505100
     17 N18          5.4760     0.1970     6.5360 nd         1 LD2      -0.341000
     18 N19          4.7970    -0.8620     6.8030 nd         1 LD2      -0.345000
     19 C20          3.9530    -1.1090     5.8420 cc         1 LD2       0.339400
     20 C21          1.1290     1.4180     5.4310 ca         1 LD2      -0.096300
     21 C22         -0.0290     2.0780     5.0630 ca         1 LD2      -0.116500
     22 C23         -0.2420     3.3810     5.4720 ca         1 LD2      -0.120500
     23 C24          0.7010     4.0240     6.2520 ca         1 LD2      -0.120000
     24 C25          1.8580     3.3640     6.6210 ca         1 LD2      -0.120500
     25 C26          2.0700     2.0590     6.2150 ca         1 LD2      -0.116500
     26 H3           3.1730     0.0010     1.1940 ha         1 LD2       0.166000
     27 H5          -0.5560    -0.0030     3.3320 ha         1 LD2       0.146000
     28 H6          -1.7780    -0.0030     1.1960 ha         1 LD2       0.156000
     29 H8          -0.5420     0.4420    -3.1950 h1         1 LD2       0.091700
     30 H8A         -0.1310     1.7730    -2.0990 h1         1 LD2       0.091700
     31 HN10         2.9950    -0.4020    -1.2860 hn         1 LD2       0.346500
     32 H13          1.9370    -0.5270     5.7370 hc         1 LD2       0.073700
     33 H13A         0.4090    -0.4980     4.8470 hc         1 LD2       0.073700
     34 HS14         7.0620     2.0570     4.5460 hs         1 LD2       0.214800
     35 H20          3.2550    -1.9370     5.7980 h5         1 LD2       0.078100
     36 H22         -0.7680     1.5740     4.4520 ha         1 LD2       0.133000
     37 H23         -1.1500     3.8970     5.1830 ha         1 LD2       0.136000
     38 H24          0.5340     5.0460     6.5710 ha         1 LD2       0.133000
     39 H25          2.5970     3.8670     7.2340 ha         1 LD2       0.136000
     40 H26          2.9770     1.5420     6.5050 ha         1 LD2       0.133000
     41 S14          5.7380     2.1310     4.5940 sh         1 LD2      -0.323100
@<TRIPOS>BOND
     1     1     2 ar
     2     1     6 ar
     3     1     7 1
     4     2     3 ar
     5     2    10 1
     6     3     4 ar
     7     4     5 ar
     8     4    12 1
     9     5     6 ar
    10     7     8 1
    11     8     9 1
    12     9    10 1
    13     9    11 2
    14    12    13 1
    15    12    16 2
    16    13    20 1
    17    41    14 1
    18    14    15 1
    19    14    17 2
    20    15    16 1
    21    15    19 1
    22    17    18 1
    23    18    19 2
    24    20    21 ar
    25    20    25 ar
    26    21    22 ar
    27    22    23 ar
    28    23    24 ar
    29    24    25 ar
    30     3    26 1
    31     5    27 1
    32     6    28 1
    33     8    29 1
    34     8    30 1
    35    10    31 1
    36    13    32 1
    37    13    33 1
    38    41    34 1
    39    19    35 1
    40    21    36 1
    41    22    37 1
    42    23    38 1
    43    24    39 1
    44    25    40 1
@<TRIPOS>SUBSTRUCTURE
     1 LD2         1 TEMP              0 ****  ****    0 ROOT
