@<TRIPOS>MOLECULE
LD2
   41    44     1     0     0
SMALL
bcc


@<TRIPOS>ATOM
      1 C1           0.0000     0.0000     0.0000 ca         1 LD2       0.137100
      2 C2           1.3970     0.0000     0.0000 ca         1 LD2      -0.163400
      3 C3           2.0900     0.0000     1.1940 ca         1 LD2      -0.046000
      4 C4           1.3880    -0.0010     2.4030 ca         1 LD2      -0.169900
      5 C5          -0.0100    -0.0020     2.3960 ca         1 LD2      -0.068000
      6 C6          -0.6950    -0.0020     1.1990 ca         1 LD2      -0.112000
      7 O7          -0.6670     0.0060    -1.1850 os         1 LD2      -0.299900
      8 C8          -0.0480     0.7060    -2.2670 c3         1 LD2       0.149400
      9 C9           1.4080     0.3250    -2.3510 c          1 LD2       0.564500
     10 N10          2.0810    -0.0010    -1.2240 ns         1 LD2      -0.019100
     11 O11          1.9720     0.3050    -3.4240 o          1 LD2      -0.646500
     12 C12          2.1200    -0.0010     3.6820 ce         1 LD2       0.523900
     13 C13          1.3620    -0.0020     4.9840 c3         1 LD2      -0.085400
     14 C15          5.0970     0.6900     5.3780 cc         1 LD2       0.332800
     15 N16          4.1140    -0.1320     4.8960 na         1 LD2       0.369400
     16 N17          3.4180     0.0000     3.6880 n2         1 LD2      -0.620100
     17 N18          5.4760     0.1970     6.5360 nd         1 LD2      -0.323000
     18 N19          4.7970    -0.8620     6.8030 nd         1 LD2      -0.308000
     19 C20          3.9530    -1.1090     5.8420 cc         1 LD2       0.172400
     20 C21          1.1290     1.4180     5.4310 ca         1 LD2      -0.105300
     21 C22         -0.0290     2.0780     5.0630 ca         1 LD2      -0.099000
     22 C23         -0.2420     3.3810     5.4720 ca         1 LD2      -0.087000
     23 C24          0.7010     4.0240     6.2520 ca         1 LD2      -0.092000
     24 C25          1.8580     3.3640     6.6210 ca         1 LD2      -0.087000
     25 C26          2.0700     2.0590     6.2150 ca         1 LD2      -0.099000
     26 H3           3.1730     0.0010     1.1940 ha         1 LD2       0.137000
     27 H5          -0.5560    -0.0030     3.3320 ha         1 LD2       0.121000
     28 H6          -1.7780    -0.0030     1.1960 ha         1 LD2       0.124000
     29 H8          -0.1310     1.7730    -2.0990 h1         1 LD2       0.042700
     30 H8A         -0.5420     0.4420    -3.1950 h1         1 LD2       0.042700
     31 HN10         2.9950    -0.4020    -1.2860 hn         1 LD2       0.188500
     32 H13          0.4090    -0.4980     4.8470 hc         1 LD2       0.050700
     33 H13A         1.9370    -0.5270     5.7370 hc         1 LD2       0.050700
     34 HS14         7.0620     2.0550     4.5420 hs         1 LD2       0.210800
     35 H20          3.2550    -1.9370     5.7980 h5         1 LD2       0.040100
     36 H22         -0.7680     1.5740     4.4520 ha         1 LD2       0.110500
     37 H23         -1.1500     3.8970     5.1830 ha         1 LD2       0.108500
     38 H24          0.5340     5.0460     6.5710 ha         1 LD2       0.106000
     39 H25          2.5970     3.8670     7.2340 ha         1 LD2       0.108500
     40 H26          2.9770     1.5420     6.5050 ha         1 LD2       0.110500
     41 S14          5.7380     2.1310     4.5940 sh         1 LD2      -0.370100
@<TRIPOS>BOND
     1     1     2 ar  
     2     1     6 ar  
     3     1     7 1   
     4     2     3 ar  
     5     2    10 1   
     6     3     4 ar  
     7     3    26 1   
     8     4     5 ar  
     9     4    12 1   
    10     5     6 ar  
    11     5    27 1   
    12     6    28 1   
    13     7     8 1   
    14     8     9 1   
    15     8    29 1   
    16     8    30 1   
    17     9    10 1   
    18     9    11 2   
    19    10    31 1   
    20    12    13 1   
    21    12    16 2   
    22    13    20 1   
    23    13    32 1   
    24    13    33 1   
    25    14    15 1   
    26    14    17 2   
    27    14    41 1   
    28    15    16 1   
    29    15    19 1   
    30    17    18 1   
    31    18    19 2   
    32    19    35 1   
    33    20    21 ar  
    34    20    25 ar  
    35    21    22 ar  
    36    21    36 1   
    37    22    23 ar  
    38    22    37 1   
    39    23    24 ar  
    40    23    38 1   
    41    24    25 ar  
    42    24    39 1   
    43    25    40 1   
    44    34    41 1   
@<TRIPOS>SUBSTRUCTURE
     1 LD2         1 TEMP              0 ****  ****    0 ROOT
