@<TRIPOS>MOLECULE
LD6
   46    48     1     0     0
SMALL
bcc


@<TRIPOS>ATOM
      1 CAY          0.0000     0.0000     0.0000 ca         1 LD6      -0.089000
      2 CAZ          1.3840     0.0000     0.0000 ca         1 LD6       0.140900
      3 FBB          2.0610    -0.0010    -1.1700 f          1 LD6      -0.105900
      4 CBA          2.0750     0.0000     1.1990 ca         1 LD6      -0.098000
      5 CAX          1.3820     0.0010     2.3960 ca         1 LD6      -0.053000
      6 CAW          0.0000     0.0010     2.3940 ca         1 LD6      -0.143000
      7 CAV         -0.6920     0.0010     1.1960 ca         1 LD6      -0.142300
      8 CAU         -2.1980     0.0020     1.1960 c3         1 LD6       0.087300
      9 NAQ         -2.6870    -1.3790     1.1960 n          1 LD6       0.049000
     10 CAR         -2.9160    -2.0230     2.3920 cc         1 LD6      -0.377400
     11 NAS         -2.6880    -1.3760     3.5850 nz         1 LD6       0.240600
     12 CAP         -2.9160    -2.0080     0.0300 c          1 LD6       0.594500
     13 OAO         -2.7140    -1.4210    -1.0160 o          1 LD6      -0.641500
     14 NAG         -3.3650    -3.2760     0.0010 ns         1 LD6      -0.088500
     15 CAH         -3.5980    -3.9470     1.1470 c          1 LD6       0.598700
     16 OAA         -4.0050    -5.0960     1.1120 o          1 LD6      -0.586500
     17 CAI         -3.3730    -3.3130     2.3810 cd         1 LD6       0.076800
     18 NAJ         -3.6170    -3.9980     3.5940 nh         1 LD6      -0.386300
     19 CAB         -2.6060    -3.9890     4.6560 c3         1 LD6       0.243100
     20 SAK         -5.0430    -4.8100     3.8150 sy         1 LD6       1.045200
     21 OAT         -5.4820    -4.4980     5.1290 o          1 LD6      -0.552300
     22 OAC         -5.8260    -4.5670     2.6550 o          1 LD6      -0.552300
     23 CAL         -4.6680    -6.5320     3.8110 ca         1 LD6      -0.167500
     24 CAM         -4.3570    -7.1740     4.9950 ca         1 LD6       0.003000
     25 CAN         -4.0630    -8.5250     4.9920 ca         1 LD6      -0.123500
     26 CAF         -4.0810    -9.2330     3.8050 ca         1 LD6      -0.022000
     27 CAE         -4.3940    -8.5910     2.6220 ca         1 LD6      -0.123500
     28 CAD         -4.6910    -7.2420     2.6260 ca         1 LD6       0.003000
     29 HAY         -0.5410     0.0000    -0.9380 ha         1 LD6       0.152000
     30 HBA          3.1580     0.0000     1.2010 ha         1 LD6       0.137000
     31 HAX          1.9220     0.0010     3.3350 ha         1 LD6       0.118000
     32 HAW         -0.5420     0.0020     3.3320 ha         1 LD6       0.063000
     33 HAU1        -2.5590     0.5130     0.3110 h1         1 LD6       0.052700
     34 HAU2        -2.5590     0.5140     2.0800 h1         1 LD6       0.052700
     35 HAS1        -2.8850    -0.4010     3.4790 hn         1 LD6       0.229800
     36 HAS2        -3.2820    -1.7610     4.2920 hn         1 LD6       0.229800
     37 HAG         -3.5280    -3.7240    -0.8780 hn         1 LD6       0.231500
     38 HAB1        -2.5420    -4.9740     5.1010 h1         1 LD6       0.017367
     39 HAB2        -2.8850    -3.2670     5.4140 h1         1 LD6       0.017367
     40 HAB3        -1.6450    -3.7180     4.2370 h1         1 LD6       0.017367
     41 HAM         -4.3430    -6.6190     5.9250 ha         1 LD6       0.134000
     42 HAD         -4.9360    -6.7390     1.6980 ha         1 LD6       0.134000
     43 HAN         -3.8180    -9.0290     5.9200 ha         1 LD6       0.119500
     44 HAF         -3.8490   -10.2920     3.8020 ha         1 LD6       0.113000
     45 HAE         -4.4100    -9.1470     1.6920 ha         1 LD6       0.119500
     46 HAS3        -1.7300    -1.4930     3.8500 hn         1 LD6       0.229800
@<TRIPOS>BOND
     1     1     2 ar  
     2     1     7 ar  
     3     1    29 1   
     4     2     3 1   
     5     2     4 ar  
     6     4     5 ar  
     7     4    30 1   
     8     5     6 ar  
     9     5    31 1   
    10     6     7 ar  
    11     6    32 1   
    12     7     8 1   
    13     8     9 1   
    14     8    33 1   
    15     8    34 1   
    16     9    10 1   
    17     9    12 1   
    18    10    11 1   
    19    10    17 2   
    20    11    35 1   
    21    11    36 1   
    22    11    46 1   
    23    12    13 2   
    24    12    14 1   
    25    14    15 1   
    26    14    37 1   
    27    15    16 2   
    28    15    17 1   
    29    17    18 1   
    30    18    19 1   
    31    18    20 1   
    32    19    38 1   
    33    19    39 1   
    34    19    40 1   
    35    20    21 2   
    36    20    22 2   
    37    20    23 1   
    38    23    24 ar  
    39    23    28 ar  
    40    24    25 ar  
    41    24    41 1   
    42    25    26 ar  
    43    25    43 1   
    44    26    27 ar  
    45    26    44 1   
    46    27    28 ar  
    47    27    45 1   
    48    28    42 1   
@<TRIPOS>SUBSTRUCTURE
     1 LD6         1 TEMP              0 ****  ****    0 ROOT
