@<TRIPOS>MOLECULE
molecule
   47    46     1     0     0
SMALL
bcc


@<TRIPOS>ATOM
      1 N1           0.0000     0.0000     0.0000 n4         1 LDA      -0.287600
      2 O1           1.4630     0.0000     0.0000 o          1 LDA      -0.637000
      3 CM1         -0.4900     0.0000     1.3850 c3         1 LDA       0.122100
      4 CM2         -0.4900    -1.1990    -0.6930 c3         1 LDA       0.122100
      5 C1          -0.4890     1.2000    -0.6920 c3         1 LDA       0.135800
      6 C2          -0.0840     1.1400    -2.1660 c3         1 LDA      -0.092400
      7 C3          -0.5940     2.3900    -2.8870 c3         1 LDA      -0.082400
      8 C4          -0.1890     2.3290    -4.3610 c3         1 LDA      -0.079400
      9 C5          -0.6980     3.5790    -5.0820 c3         1 LDA      -0.082400
     10 C6          -0.2940     3.5180    -6.5560 c3         1 LDA      -0.081400
     11 C7          -0.8040     4.7670    -7.2770 c3         1 LDA      -0.082400
     12 C8          -0.3980     4.7070    -8.7510 c3         1 LDA      -0.081400
     13 C9          -0.9080     5.9570    -9.4720 c3         1 LDA      -0.082400
     14 C10         -0.5030     5.8960   -10.9460 c3         1 LDA      -0.081400
     15 C11         -1.0120     7.1460   -11.6670 c3         1 LDA      -0.084400
     16 C12         -0.6080     7.0850   -13.1410 c3         1 LDA      -0.092100
     17 HM11        -1.5710    -0.0630     1.3860 hx         1 LDA       0.061700
     18 HM12        -0.0780    -0.8510     1.9140 hx         1 LDA       0.061700
     19 HM13        -0.1810     0.9140     1.8770 hx         1 LDA       0.061700
     20 HM21        -0.4830    -2.0390    -0.0090 hx         1 LDA       0.061700
     21 HM22         0.1530    -1.4150    -1.5380 hx         1 LDA       0.061700
     22 HM23        -1.5000    -1.0260    -1.0430 hx         1 LDA       0.061700
     23 H11         -0.0580     2.0820    -0.2340 hx         1 LDA       0.061200
     24 H12         -1.5690     1.2460    -0.6160 hx         1 LDA       0.061200
     25 H21          0.9960     1.0950    -2.2420 hc         1 LDA       0.066200
     26 H22         -0.5150     0.2580    -2.6230 hc         1 LDA       0.066200
     27 H31         -1.6740     2.4350    -2.8100 hc         1 LDA       0.040700
     28 H32         -0.1620     3.2720    -2.4300 hc         1 LDA       0.040700
     29 H41         -0.6220     1.4470    -4.8180 hc         1 LDA       0.044700
     30 H42          0.8900     2.2830    -4.4370 hc         1 LDA       0.044700
     31 H51         -1.7780     3.6250    -5.0060 hc         1 LDA       0.040700
     32 H52         -0.2660     4.4610    -4.6250 hc         1 LDA       0.040700
     33 H61         -0.7260     2.6360    -7.0140 hc         1 LDA       0.042200
     34 H62          0.7860     3.4720    -6.6330 hc         1 LDA       0.042200
     35 H71         -1.8830     4.8130    -7.2010 hc         1 LDA       0.040700
     36 H72         -0.3720     5.6490    -6.8190 hc         1 LDA       0.040700
     37 H81          0.6810     4.6620    -8.8260 hc         1 LDA       0.041200
     38 H82         -0.8300     3.8250    -9.2080 hc         1 LDA       0.041200
     39 H91         -0.4760     6.8390    -9.0150 hc         1 LDA       0.040700
     40 H92         -1.9880     6.0030    -9.3950 hc         1 LDA       0.040700
     41 H101        -0.9360     5.0140   -11.4030 hc         1 LDA       0.041200
     42 H102         0.5760     5.8490   -11.0220 hc         1 LDA       0.041200
     43 H111        -0.5800     8.0280   -11.2100 hc         1 LDA       0.039700
     44 H112        -2.0920     7.1930   -11.5900 hc         1 LDA       0.039700
     45 H121        -1.0390     6.2030   -13.5980 hc         1 LDA       0.032367
     46 H122        -0.9690     7.9700   -13.6510 hc         1 LDA       0.032367
     47 H123         0.4720     7.0400   -13.2180 hc         1 LDA       0.032367
@<TRIPOS>BOND
     1     1     2 1
     2     1     3 1
     3     1     4 1
     4     1     5 1
     5     3    17 1
     6     3    18 1
     7     3    19 1
     8     4    20 1
     9     4    21 1
    10     4    22 1
    11     5     6 1
    12     5    23 1
    13     5    24 1
    14     6     7 1
    15     6    25 1
    16     6    26 1
    17     7     8 1
    18     7    27 1
    19     7    28 1
    20     8     9 1
    21     8    29 1
    22     8    30 1
    23     9    10 1
    24     9    31 1
    25     9    32 1
    26    10    11 1
    27    10    33 1
    28    10    34 1
    29    11    12 1
    30    11    35 1
    31    11    36 1
    32    12    13 1
    33    12    37 1
    34    12    38 1
    35    13    14 1
    36    13    39 1
    37    13    40 1
    38    14    15 1
    39    14    41 1
    40    14    42 1
    41    15    16 1
    42    15    43 1
    43    15    44 1
    44    16    45 1
    45    16    46 1
    46    16    47 1
@<TRIPOS>SUBSTRUCTURE
     1 LDA         1 TEMP              0 ****  ****    0 ROOT
