@<TRIPOS>MOLECULE
LDC
   29    30     1     0     0
SMALL
bcc


@<TRIPOS>ATOM
      1 O1          0.2190   -0.8010   -0.1960 o         1 LDC     -0.634500
      2 C2          1.4240   -0.4760   -0.1430 c         1 LDC      0.834900
      3 N3          2.1960   -0.6280    1.0120 nc        1 LDC     -0.726100
      4 C3          3.4870   -0.2450    0.9880 cd        1 LDC      0.750500
      5 N4          4.2840   -0.4590    2.0950 nh        1 LDC     -0.913800
      6 C4          4.0930    0.3530   -0.1980 cd        1 LDC     -0.441600
      7 C5          3.3160    0.4910   -1.3210 cc        1 LDC      0.071600
      8 N2          2.0110    0.0750   -1.3460 n         1 LDC     -0.408000
      9 C8          1.1490    0.2910   -2.5110 c3        1 LDC      0.306500
     10 C9          0.5090   -0.9950   -3.0810 c3        1 LDC     -0.144400
     11 C10         1.2370   -1.2660   -4.4010 c3        1 LDC      0.115100
     12 O3          0.3610   -1.2940   -5.5140 oh        1 LDC     -0.590800
     13 C11         2.1810   -0.0600   -4.6040 c3        1 LDC      0.132100
     14 O4          1.8800    0.8990   -3.5840 os        1 LDC     -0.398600
     15 C12         3.6400   -0.5070   -4.5250 c3        1 LDC      0.105400
     16 O5          4.4480    0.6570   -4.5530 oh        1 LDC     -0.590800
     17 HN41        3.8650   -0.7460    2.9480 hn        1 LDC      0.432300
     18 HN42        5.1330    0.0470    2.1460 hn        1 LDC      0.432300
     19 H4          5.1370    0.6810   -0.1950 ha        1 LDC      0.154000
     20 H5          3.7180    0.9450   -2.2550 h4        1 LDC      0.193000
     21 H8          0.3630    1.0470   -2.2130 h2        1 LDC      0.102700
     22 H91         0.5900   -1.8580   -2.3770 hc        1 LDC      0.087700
     23 H92        -0.5780   -0.8000   -3.2600 hc        1 LDC      0.087700
     24 H10         1.8090   -2.2320   -4.3590 h1        1 LDC      0.049700
     25 HO3        -0.3120   -1.9600   -5.3260 ho        1 LDC      0.410000
     26 H11         1.9820    0.4750   -5.5730 h1        1 LDC      0.111700
     27 H121        3.8330   -1.0670   -3.5700 h1        1 LDC      0.034200
     28 H122        3.8660   -1.1730   -5.4000 h1        1 LDC      0.034200
     29 HO5         5.3460    0.3640   -4.7510 ho        1 LDC      0.403000
@<TRIPOS>BOND
     1    1    2 2   
     2    2    3 1   
     3    2    8 1   
     4    3    4 2   
     5    4    5 1   
     6    4    6 1   
     7    5   17 1   
     8    5   18 1   
     9    6    7 2   
    10    6   19 1   
    11    7    8 1   
    12    7   20 1   
    13    8    9 1   
    14    9   10 1   
    15    9   14 1   
    16    9   21 1   
    17   10   11 1   
    18   10   22 1   
    19   10   23 1   
    20   11   12 1   
    21   11   13 1   
    22   11   24 1   
    23   12   25 1   
    24   13   14 1   
    25   13   15 1   
    26   13   26 1   
    27   15   16 1   
    28   15   27 1   
    29   15   28 1   
    30   16   29 1   
@<TRIPOS>SUBSTRUCTURE
     1 LDC         1 TEMP              0 ****  ****    0 ROOT
