@<TRIPOS>MOLECULE
molecule
   68    73     1     0     0
SMALL
bcc


@<TRIPOS>ATOM
      1 O19          0.0000     0.0000     0.0000 o          1 LDG      -0.537100
      2 C19          1.2160     0.0000     0.0000 c          1 LDG       0.583300
      3 C18          1.9590     0.0000     1.2720 ca         1 LDG      -0.211600
      4 C17          1.3090    -0.2900     2.4760 ca         1 LDG       0.215100
      5 O17         -0.0170    -0.5740     2.4820 os         1 LDG      -0.341900
      6 C16          2.0260    -0.2850     3.6660 ca         1 LDG      -0.183300
      7 C9           3.3810     0.0040     3.6650 ca         1 LDG       0.170100
      8 C81          4.0410     0.2940     2.4720 ca         1 LDG      -0.192000
      9 C7           3.3390     0.2920     1.2760 ca         1 LDG      -0.093600
     10 C61          4.0260     0.5940     0.0010 c          1 LDG       0.574300
     11 O61          5.1380     1.0840     0.0020 o          1 LDG      -0.552100
     12 C20          1.9650    -0.0050    -1.2750 ca         1 LDG      -0.130600
     13 C1           1.3210    -0.2950    -2.4730 ca         1 LDG      -0.084000
     14 C51          3.3410     0.2920    -1.2760 ca         1 LDG      -0.137600
     15 C41          4.0490     0.2870    -2.4740 ca         1 LDG      -0.086000
     16 C3           3.3940    -0.0100    -3.6580 ca         1 LDG      -0.137000
     17 C71          2.0370    -0.2960    -3.6570 ca         1 LDG      -0.135000
     18 O1           4.0710     0.0060     4.8330 os         1 LDG      -0.312900
     19 C14          5.4650     0.3120     4.7640 c3         1 LDG       0.126700
     20 C15         -0.9150     0.5260     2.6400 c3         1 LDG       0.145700
     21 C2R          1.3280    -0.5970     4.9640 c3         1 LDG       0.317100
     22 P           -2.4600     2.0630    14.7850 p5         1 LDG       1.194900
     23 OP1         -1.1490     2.4470    15.6360 o          1 LDG      -0.832500
     24 C5'         -3.0050     1.5520    12.2190 c3         1 LDG       0.229400
     25 C4'         -2.2800     1.3580    10.8870 c3         1 LDG       0.123100
     26 C3'         -3.3000     1.2030     9.7370 c3         1 LDG       0.105100
     27 O3'         -3.4710     2.4430     9.0490 oh         1 LDG      -0.603800
     28 C2'         -2.6570     0.1510     8.8040 c3         1 LDG      -0.148400
     29 C1'         -1.3260    -0.2050     9.5010 c3         1 LDG       0.242800
     30 O4'         -1.5400     0.1180    10.8930 os         1 LDG      -0.377600
     31 N9          -1.0350    -1.6330     9.3480 na         1 LDG      -0.174900
     32 C4          -0.3580    -2.2140     8.3100 cc         1 LDG       0.114800
     33 C5          -0.3230    -3.5850     8.5890 cd         1 LDG       0.172800
     34 N7          -0.9690    -3.7720     9.7650 nd         1 LDG      -0.654000
     35 C8          -1.3840    -2.6250    10.2170 cc         1 LDG       0.449400
     36 N3           0.2140    -1.7500     7.1940 nd         1 LDG      -0.720100
     37 C2           0.8130    -2.5610     6.3500 cc         1 LDG       0.723800
     38 N2           1.3860    -2.0380     5.2180 nu         1 LDG      -0.870200
     39 N1           0.8800    -3.9050     6.5650 ns         1 LDG      -0.488400
     40 C6           0.3190    -4.4460     7.6690 c          1 LDG       0.643000
     41 O6           0.3740    -5.6480     7.8730 o          1 LDG      -0.642500
     42 OP2         -3.1210     0.7260    15.3920 o          1 LDG      -0.832500
     43 H1           5.0990     0.5260     2.4340 ha         1 LDG       0.156000
     44 H2           0.2610    -0.5190    -2.4790 ha         1 LDG       0.150000
     45 H3           5.1090     0.5100    -2.4800 ha         1 LDG       0.146000
     46 H4           3.9450    -0.0130    -4.5910 ha         1 LDG       0.124000
     47 H5           1.5350    -0.5270    -4.5890 ha         1 LDG       0.125000
     48 H6           5.8920     0.2770     5.7590 h1         1 LDG       0.044367
     49 H7           5.9630    -0.4130     4.1320 h1         1 LDG       0.044367
     50 H8           5.5970     1.3040     4.3490 h1         1 LDG       0.044367
     51 H9          -0.3510     1.4500     2.6830 h1         1 LDG       0.042033
     52 H10         -1.4790     0.4040     3.5570 h1         1 LDG       0.042033
     53 H11         -1.5970     0.5590     1.7980 h1         1 LDG       0.042033
     54 H12          1.8170    -0.0680     5.7730 h1         1 LDG       0.070700
     55 H13          0.2930    -0.2830     4.9020 h1         1 LDG       0.070700
     56 H15         -3.5630     0.6550    12.4610 h1         1 LDG       0.028200
     57 H16         -3.6860     2.3910    12.1410 h1         1 LDG       0.028200
     58 H17         -1.6150     2.1900    10.6880 h1         1 LDG       0.074700
     59 H18         -4.2470     0.8400    10.1180 h1         1 LDG       0.052700
     60 H19         -4.3890     2.6490     8.9960 ho         1 LDG       0.397000
     61 H20         -3.2910    -0.7250     8.7290 hc         1 LDG       0.059700
     62 H21         -2.4700     0.5770     7.8260 hc         1 LDG       0.059700
     63 H22         -0.5190     0.3950     9.0970 h2         1 LDG       0.080700
     64 H23         -1.9270    -2.4800    11.1430 h5         1 LDG       0.102100
     65 H24          1.8380    -2.6430     4.5610 hn         1 LDG       0.442800
     66 H25          1.3440    -4.4930     5.9020 hn         1 LDG       0.322500
     67 OP3         -3.4380     3.1730    14.8560 o          1 LDG      -0.832500
     68 O5'         -2.0480     1.8100    13.2500 os         1 LDG      -0.570200
@<TRIPOS>BOND
     1    41    40 2
     2    40    39 1
     3    40    33 1
     4    39    37 1
     5    20     5 1
     6     5     4 1
     7    38    37 1
     8    38    21 1
     9    37    36 2
    10     1     2 2
    11    33    34 1
    12    33    32 2
    13    34    35 2
    14    21     6 1
    15     4     6 ar
    16     4     3 ar
    17    32    36 1
    18    32    31 1
    19     2     3 1
    20     2    12 1
    21    13    12 ar
    22    13    17 ar
    23     6     7 ar
    24    35    31 1
    25     3     9 ar
    26    12    14 ar
    27    31    29 1
    28    17    16 ar
    29     7    18 1
    30     7     8 ar
    31     9     8 ar
    32     9    10 1
    33    14    10 1
    34    14    15 ar
    35    29    30 1
    36    29    28 1
    37    18    19 1
    38    16    15 ar
    39    42    22 1
    40    30    25 1
    41    10    11 2
    42    28    26 1
    43    68    22 1
    44    68    24 1
    45    22    23 1
    46    25    24 1
    47    25    26 1
    48    26    27 1
    49     8    43 1
    50    13    44 1
    51    15    45 1
    52    16    46 1
    53    17    47 1
    54    19    48 1
    55    19    49 1
    56    19    50 1
    57    20    51 1
    58    20    52 1
    59    20    53 1
    60    21    54 1
    61    21    55 1
    62    24    56 1
    63    24    57 1
    64    25    58 1
    65    26    59 1
    66    27    60 1
    67    28    61 1
    68    28    62 1
    69    29    63 1
    70    35    64 1
    71    38    65 1
    72    39    66 1
    73    22    67 1
@<TRIPOS>SUBSTRUCTURE
     1 LDG         1 TEMP              0 ****  ****    0 ROOT
