@<TRIPOS>MOLECULE
molecule
   57    56     1     0     0
SMALL
bcc


@<TRIPOS>ATOM
      1 N1           0.0000     0.0000     0.0000 n4         1 LDM      -0.288600
      2 O1           1.4640     0.0000     0.0000 o          1 LDM      -0.636000
      3 C1          -0.4900     0.0000     1.3850 c3         1 LDM       0.140800
      4 C3          -0.4900    -1.2500     3.5490 c3         1 LDM       0.112000
      5 C4          -0.3270    -2.6600     5.5290 c          1 LDM       0.657100
      6 C5           0.1760    -3.8900     6.2390 c3         1 LDM      -0.157400
      7 C7           0.1750    -5.1390     8.4040 c3         1 LDM      -0.085400
      8 C8          -0.3350    -5.1400     9.8460 c3         1 LDM      -0.080400
      9 C10         -0.3340    -6.3890    12.0090 c3         1 LDM      -0.081400
     10 C11          0.1750    -7.6390    12.7310 c3         1 LDM      -0.082400
     11 C12         -0.3340    -7.6390    14.1730 c3         1 LDM      -0.082400
     12 CM1         -0.4900    -1.1990    -0.6930 c3         1 LDM       0.122100
     13 CM2         -0.4900     1.1990    -0.6930 c3         1 LDM       0.122100
     14 C2           0.0200    -1.2500     2.1060 c3         1 LDM      -0.110400
     15 C9           0.1750    -6.3890    10.5670 c3         1 LDM      -0.082400
     16 N2          -0.0010    -2.4460     4.2390 ns         1 LDM      -0.589900
     17 C14         -0.3350    -8.8880    16.3360 c3         1 LDM      -0.084400
     18 C15          0.1760   -10.1380    17.0580 c3         1 LDM      -0.092100
     19 O2          -1.0240    -1.8610     6.1190 o          1 LDM      -0.609100
     20 C6          -0.3350    -3.8900     7.6820 c3         1 LDM      -0.066400
     21 C13          0.1760    -8.8880    14.8940 c3         1 LDM      -0.081400
     22 H1C1        -0.1280     0.8840     1.8950 hx         1 LDM       0.064700
     23 H1C2        -1.5730     0.0000     1.3850 hx         1 LDM       0.064700
     24 H3C1        -0.1280    -0.3660     4.0590 h1         1 LDM       0.052200
     25 H3C2        -1.5730    -1.2500     3.5490 h1         1 LDM       0.052200
     26 H5C1         1.2590    -3.8890     6.2400 hc         1 LDM       0.059200
     27 H5C2        -0.1850    -4.7750     5.7280 hc         1 LDM       0.059200
     28 H7C1         1.2590    -5.1390     8.4040 hc         1 LDM       0.038700
     29 H7C2        -0.1850    -6.0240     7.8930 hc         1 LDM       0.038700
     30 H8C1         0.0260    -4.2550    10.3570 hc         1 LDM       0.044200
     31 H8C2        -1.4180    -5.1400     9.8450 hc         1 LDM       0.044200
     32 H101        -1.4170    -6.3880    12.0090 hc         1 LDM       0.041700
     33 H102         0.0280    -5.5050    12.5200 hc         1 LDM       0.041700
     34 H111         1.2590    -7.6390    12.7300 hc         1 LDM       0.040700
     35 H112        -0.1860    -8.5230    12.2200 hc         1 LDM       0.040700
     36 H121        -1.4170    -7.6390    14.1730 hc         1 LDM       0.041200
     37 H122         0.0270    -6.7540    14.6840 hc         1 LDM       0.041200
     38 HM11        -0.4360    -1.0450    -1.7640 hx         1 LDM       0.062867
     39 HM12        -1.5170    -1.3880    -0.4060 hx         1 LDM       0.062867
     40 HM13         0.1230    -2.0500    -0.4190 hx         1 LDM       0.062867
     41 HM21        -1.5730     1.1890    -0.7110 hx         1 LDM       0.062867
     42 HM22        -0.1120     1.2100    -1.7080 hx         1 LDM       0.062867
     43 HM23        -0.1470     2.0840    -0.1710 hx         1 LDM       0.062867
     44 H2C1         1.1030    -1.2500     2.1060 hc         1 LDM       0.070700
     45 H2C2        -0.3420    -2.1340     1.5960 hc         1 LDM       0.070700
     46 H9C1         1.2590    -6.3890    10.5660 hc         1 LDM       0.040200
     47 H9C2        -0.1860    -7.2730    10.0560 hc         1 LDM       0.040200
     48 H2           0.5810    -3.1010     3.7550 hn         1 LDM       0.315500
     49 H141         0.0260    -8.0030    16.8470 hc         1 LDM       0.039700
     50 H142        -1.4180    -8.8880    16.3360 hc         1 LDM       0.039700
     51 H151        -0.1820   -11.0220    16.5450 hc         1 LDM       0.032367
     52 H152         1.2600   -10.1360    17.0600 hc         1 LDM       0.032367
     53 H153        -0.1870   -10.1390    18.0780 hc         1 LDM       0.032367
     54 H6C1         0.0260    -3.0050     8.1920 hc         1 LDM       0.058700
     55 H6C2        -1.4180    -3.8900     7.6810 hc         1 LDM       0.058700
     56 H131         1.2600    -8.8870    14.8940 hc         1 LDM       0.040700
     57 H132        -0.1840    -9.7720    14.3830 hc         1 LDM       0.040700
@<TRIPOS>BOND
     1     1     2 1
     2     1     3 1
     3     1    12 1
     4     1    13 1
     5     3    14 1
     6     3    22 1
     7     3    23 1
     8     4    14 1
     9     4    16 1
    10     4    24 1
    11     4    25 1
    12     5     6 1
    13     5    16 1
    14     5    19 2
    15     6    20 1
    16     6    26 1
    17     6    27 1
    18     7     8 1
    19     7    20 1
    20     7    28 1
    21     7    29 1
    22     8    15 1
    23     8    30 1
    24     8    31 1
    25     9    10 1
    26     9    15 1
    27     9    32 1
    28     9    33 1
    29    10    11 1
    30    10    34 1
    31    10    35 1
    32    11    21 1
    33    11    36 1
    34    11    37 1
    35    12    38 1
    36    12    39 1
    37    12    40 1
    38    13    41 1
    39    13    42 1
    40    13    43 1
    41    14    44 1
    42    14    45 1
    43    15    46 1
    44    15    47 1
    45    16    48 1
    46    17    18 1
    47    17    21 1
    48    17    49 1
    49    17    50 1
    50    18    51 1
    51    18    52 1
    52    18    53 1
    53    20    54 1
    54    20    55 1
    55    21    56 1
    56    21    57 1
@<TRIPOS>SUBSTRUCTURE
     1 LDM         1 TEMP              0 ****  ****    0 ROOT
