@<TRIPOS>MOLECULE
molecule
   53    58     1     0     0
SMALL
bcc


@<TRIPOS>ATOM
      1 CAA          0.0000     0.0000     0.0000 ca         1 LDN      -0.121000
      2 CAB          1.3920     0.0000     0.0000 ca         1 LDN      -0.136000
      3 CAC         -0.0650     0.0230     4.7130 ca         1 LDN       0.436200
      4 CAD          1.3160     0.0020     4.8250 ca         1 LDN      -0.258300
      5 CAE          8.1730     4.9070     2.8690 ca         1 LDN      -0.128000
      6 CAF          7.5680     4.5090     0.5670 ca         1 LDN      -0.128000
      7 CAG          9.1390     5.8010     2.4590 ca         1 LDN      -0.110000
      8 CAH          8.5270     5.4140     0.1610 ca         1 LDN      -0.110000
      9 CAI         -0.7040     0.0050     1.1660 ca         1 LDN      -0.168300
     10 CAJ          2.0900     0.0000     1.1710 ca         1 LDN      -0.092000
     11 CAK          5.2280     2.9660     2.4250 cc         1 LDN       0.455200
     12 CAL          4.3670    -1.0620     4.2540 cc         1 LDN       0.436500
     13 CAM          6.7820     1.3390     3.2480 cd         1 LDN       0.017700
     14 CAN         11.6090     7.8690    -0.9370 c3         1 LDN       0.152800
     15 CAO         12.7530     6.2820     0.4870 c3         1 LDN       0.152800
     16 CAP         10.2940     7.5710    -0.2140 c3         1 LDN       0.121300
     17 CAQ         11.4370     5.9820     1.2110 c3         1 LDN       0.121300
     18 NAR         -0.6790     0.0170     3.5550 nb         1 LDN      -0.693000
     19 NAS          4.2280     2.1800     2.7480 nd         1 LDN      -0.673000
     20 NAT          5.6270    -0.7200     4.1470 nd         1 LDN      -0.572100
     21 NAU         12.7320     7.6630    -0.0120 n7         1 LDN      -0.822200
     22 CAV          7.3820     4.2550     1.9250 ca         1 LDN       0.010000
     23 CAW          6.5560     2.5570     2.6690 cc         1 LDN      -0.254300
     24 CAX          9.3180     6.0580     1.1050 ca         1 LDN       0.035600
     25 CAY          2.1000    -0.0040     3.6710 ca         1 LDN       0.059200
     26 CAZ          3.5720    -0.0260     3.7420 cc         1 LDN      -0.288800
     27 CBA         -0.0180     0.0120     2.3920 ca         1 LDN       0.420600
     28 CBB          1.3970     0.0000     2.3870 ca         1 LDN      -0.141300
     29 CBC          4.4440     0.9870     3.3090 cd         1 LDN       0.409500
     30 NBD         10.3140     6.1890     0.2850 nh         1 LDN      -0.516000
     31 NBE          5.7150     0.5490     3.5640 na         1 LDN       0.052200
     32 HAA         -0.5320    -0.0000    -0.9430 ha         1 LDN       0.129000
     33 HAB          1.9280    -0.0040    -0.9410 ha         1 LDN       0.127000
     34 HAC         -0.6600     0.0280     5.6180 h4         1 LDN       0.018100
     35 HAD          1.7850     0.0080     5.8020 ha         1 LDN       0.139000
     36 HAF          6.9530     4.0050    -0.1680 ha         1 LDN       0.144000
     37 HAG          9.7560     6.3060     3.1930 ha         1 LDN       0.151500
     38 HAH          8.6710     5.6140    -0.8940 ha         1 LDN       0.151500
     39 HAI         -1.7870     0.0050     1.1490 ha         1 LDN       0.146000
     40 HAJ          3.1730    -0.0000     1.1610 ha         1 LDN       0.137000
     41 HAK          5.0340     3.9290     1.9680 h4         1 LDN       0.045100
     42 HAL          3.9990    -1.9920     4.6700 h4         1 LDN       0.069800
     43 HAM          7.7920     1.0020     3.4450 h4         1 LDN       0.181000
     44 HAN         11.6070     8.8970    -1.2780 h1         1 LDN       0.041200
     45 HANA        11.7130     7.2010    -1.7830 h1         1 LDN       0.041200
     46 HAO         13.5790     6.1610     1.1780 h1         1 LDN       0.041200
     47 HAOA        12.8680     5.6000    -0.3470 h1         1 LDN       0.041200
     48 HAP          9.4680     7.6940    -0.9030 h1         1 LDN       0.055950
     49 HAPA        10.1790     8.2540     0.6200 h1         1 LDN       0.055950
     50 HAQ         11.4390     4.9540     1.5510 h1         1 LDN       0.055950
     51 HAQA        11.3330     6.6490     2.0580 h1         1 LDN       0.055950
     52 HNAU        13.5930     7.8610    -0.4830 hn         1 LDN       0.358800
     53 HAE          8.0310     4.7090     3.9240 ha         1 LDN       0.144000
@<TRIPOS>BOND
     1     9     1 ar
     2     1     2 ar
     3     1    32 1
     4    10     2 ar
     5     2    33 1
     6     3    18 ar
     7     3     4 ar
     8     3    34 1
     9     4    25 ar
    10     4    35 1
    11    22     5 ar
    12     5     7 ar
    13     5    53 1
    14     6    22 ar
    15     6     8 ar
    16     6    36 1
    17    24     7 ar
    18     7    37 1
    19     8    24 ar
    20     8    38 1
    21    27     9 ar
    22     9    39 1
    23    28    10 ar
    24    10    40 1
    25    19    11 2
    26    11    23 1
    27    11    41 1
    28    26    12 1
    29    12    20 2
    30    12    42 1
    31    23    13 2
    32    31    13 1
    33    13    43 1
    34    21    14 1
    35    16    14 1
    36    14    44 1
    37    14    45 1
    38    17    15 1
    39    15    21 1
    40    15    46 1
    41    15    47 1
    42    30    16 1
    43    16    48 1
    44    16    49 1
    45    17    30 1
    46    17    50 1
    47    17    51 1
    48    18    27 ar
    49    19    29 1
    50    31    20 1
    51    21    52 1
    52    23    22 1
    53    24    30 1
    54    25    28 ar
    55    25    26 1
    56    29    26 2
    57    27    28 ar
    58    29    31 1
@<TRIPOS>SUBSTRUCTURE
     1 LDN         1 TEMP              0 ****  ****    0 ROOT
