@<TRIPOS>MOLECULE
LDN
   53    58     1     0     0
SMALL
bcc


@<TRIPOS>ATOM
      1 CAA        -0.2190   -0.3350    0.0550 ca        1 LDN     -0.123000
      2 CAB         1.1920   -0.2600    0.0070 ca        1 LDN     -0.133000
      3 CAC        -0.1580    0.1360    4.7780 ca        1 LDN      0.410200
      4 CAD         1.2650    0.2340    4.8280 ca        1 LDN     -0.245300
      5 CAE         8.5860    3.9460    2.7160 ca        1 LDN     -0.089000
      6 CAF         7.4540    4.2670    0.6140 ca        1 LDN     -0.089000
      7 CAG         9.6170    4.7780    2.2940 ca        1 LDN     -0.173000
      8 CAH         8.4800    5.0920    0.1790 ca        1 LDN     -0.173000
      9 CAI        -0.8860   -0.2490    1.2500 ca        1 LDN     -0.169300
     10 CAJ         1.9160   -0.0950    1.1620 ca        1 LDN     -0.097000
     11 CAK         5.0370    3.1260    2.0020 cc        1 LDN      0.437200
     12 CAL         4.3240   -0.6250    4.3560 cc        1 LDN      0.394500
     13 CAM         6.6680    1.6760    3.0820 cd        1 LDN     -0.003300
     14 CAN        11.5000    8.0920   -0.8000 c3        1 LDN      0.158300
     15 CAO        13.0430    6.8850    0.6120 c3        1 LDN      0.158300
     16 CAP        10.3100    7.4200   -0.0830 c3        1 LDN      0.187800
     17 CAQ        11.8620    6.2060    1.3370 c3        1 LDN      0.187800
     18 NAR        -0.8570   -0.0110    3.6680 nb        1 LDN     -0.658000
     19 NAS         3.9990    2.3980    2.3630 nd        1 LDN     -0.619000
     20 NAT         5.6210   -0.2400    4.2230 nd        1 LDN     -0.557100
     21 NAU        12.6870    8.1620    0.0280 n3        1 LDN     -0.820200
     22 CAV         7.4890    3.6790    1.8870 ca        1 LDN     -0.073000
     23 CAW         6.4110    2.8130    2.3330 cc        1 LDN     -0.188300
     24 CAX         9.5940    5.3690    1.0100 ca        1 LDN      0.157600
     25 CAY         1.9820    0.1770    3.6490 ca        1 LDN      0.051200
     26 CAZ         3.4200    0.2720    3.6780 cc        1 LDN     -0.223800
     27 CBA        -0.1610   -0.0810    2.4750 ca        1 LDN      0.392600
     28 CBB         1.2660    0.0050    2.4190 ca        1 LDN     -0.127300
     29 CBC         4.2580    1.2680    3.1080 cd        1 LDN      0.365500
     30 NBD        10.6680    6.1390    0.5100 nh        1 LDN     -0.640000
     31 NBE         5.6090    0.8830    3.4900 na        1 LDN      0.045200
     32 HAA        -0.7780   -0.4640   -0.8840 ha        1 LDN      0.133000
     33 HAB         1.7000   -0.3370   -0.9650 ha        1 LDN      0.132000
     34 HAC        -0.7390    0.1870    5.7180 h4        1 LDN      0.020100
     35 HAD         1.7640    0.3620    5.7980 ha        1 LDN      0.145000
     36 HAF         6.6060    4.0610   -0.0580 ha        1 LDN      0.134000
     37 HAG        10.4490    4.9680    2.9890 ha        1 LDN      0.139000
     38 HAH         8.4230    5.5140   -0.8360 ha        1 LDN      0.139000
     39 HAI        -1.9850   -0.3090    1.2880 ha        1 LDN      0.148000
     40 HAJ         3.0150   -0.0340    1.1330 ha        1 LDN      0.140000
     41 HAK         4.8210    4.0380    1.4130 h4        1 LDN      0.039100
     42 HAL         4.0540   -1.5240    4.9150 h4        1 LDN      0.060800
     43 HAM         7.6850    1.3580    3.3740 h4        1 LDN      0.185000
     44 HAN        11.6860    7.5430   -1.7700 h1        1 LDN      0.038450
     45 HANA       11.1960    9.1460   -1.0520 h1        1 LDN      0.038450
     46 HAO        13.8500    7.0720    1.3750 h1        1 LDN      0.038450
     47 HAOA       13.4510    6.1620   -0.1540 h1        1 LDN      0.038450
     48 HAP         9.5020    7.2570   -0.8470 h1        1 LDN      0.045950
     49 HAPA        9.9130    8.1280    0.7010 h1        1 LDN      0.045950
     50 HAQ        11.6650    6.7610    2.3010 h1        1 LDN      0.045950
     51 HAQA       12.1760    5.1550    1.5890 h1        1 LDN      0.045950
     52 HNAU       13.4570    8.5270   -0.5010 hn        1 LDN      0.367800
     53 HAE         8.6290    3.5050    3.7240 ha        1 LDN      0.134000
@<TRIPOS>BOND
     1    1    2 ar  
     2    1    9 ar  
     3    1   32 1   
     4    2   10 ar  
     5    2   33 1   
     6    3    4 ar  
     7    3   18 ar  
     8    3   34 1   
     9    4   25 ar  
    10    4   35 1   
    11    5    7 ar  
    12    5   22 ar  
    13    5   53 1   
    14    6    8 ar  
    15    6   22 ar  
    16    6   36 1   
    17    7   24 ar  
    18    7   37 1   
    19    8   24 ar  
    20    8   38 1   
    21    9   27 ar  
    22    9   39 1   
    23   10   28 ar  
    24   10   40 1   
    25   11   19 2   
    26   11   23 1   
    27   11   41 1   
    28   12   20 2   
    29   12   26 1   
    30   12   42 1   
    31   13   23 2   
    32   13   31 1   
    33   13   43 1   
    34   14   16 1   
    35   14   21 1   
    36   14   44 1   
    37   14   45 1   
    38   15   17 1   
    39   15   21 1   
    40   15   46 1   
    41   15   47 1   
    42   16   30 1   
    43   16   48 1   
    44   16   49 1   
    45   17   30 1   
    46   17   50 1   
    47   17   51 1   
    48   18   27 ar  
    49   19   29 1   
    50   20   31 1   
    51   21   52 1   
    52   22   23 1   
    53   24   30 1   
    54   25   26 1   
    55   25   28 ar  
    56   26   29 2   
    57   27   28 ar  
    58   29   31 1   
@<TRIPOS>SUBSTRUCTURE
     1 LDN         1 TEMP              0 ****  ****    0 ROOT
