@<TRIPOS>MOLECULE
LDO
   23    22     1     0     0
SMALL
bcc


@<TRIPOS>ATOM
      1 N            0.0000     0.0000     0.0000 nz         1 LDO       0.057400
      2 CA           1.4690     0.0000     0.0000 c3         1 LDO      -0.199500
      3 CB           1.9790     0.0000     1.4410 c3         1 LDO      -0.020400
      4 CG           1.4700     1.2470     2.1640 c3         1 LDO      -0.043400
      5 CD           1.9790     1.2470     3.6060 c3         1 LDO      -0.032400
      6 CE           1.4690     2.4940     4.3300 c3         1 LDO       0.228400
      7 OZ           1.9450     2.4940     5.6750 oh         1 LDO      -0.586800
      8 C            1.9710    -1.2280    -0.7120 c          1 LDO       0.952600
      9 O            3.1440    -1.1950    -1.3640 o          1 LDO      -0.811800
     10 OXT          1.3200    -2.2450    -0.6960 o          1 LDO      -0.811800
     11 HN1         -0.3340    -0.7330    -0.5940 hn         1 LDO       0.214800
     12 HN2         -0.3340    -0.1480     0.9320 hn         1 LDO       0.214800
     13 HA1          1.8300     0.8850    -0.5100 hx         1 LDO       0.087700
     14 HB1          1.6180    -0.8850     1.9510 hc         1 LDO       0.056700
     15 HB2          3.0620     0.0000     1.4410 hc         1 LDO       0.056700
     16 HG1          0.3860     1.2470     2.1640 hc         1 LDO       0.001700
     17 HG2          1.8300     2.1320     1.6540 hc         1 LDO       0.001700
     18 HD1          1.6180     0.3620     4.1160 hc         1 LDO       0.033700
     19 HD2          3.0620     1.2470     3.6060 hc         1 LDO       0.033700
     20 HE1          1.8300     3.3800     3.8200 h1         1 LDO      -0.019300
     21 HE2          0.3860     2.4940     4.3300 h1         1 LDO      -0.019300
     22 HOZ          1.6480     3.2740     6.1140 ho         1 LDO       0.393000
     23 HN3         -0.3340     0.8790    -0.3440 hn         1 LDO       0.214800
@<TRIPOS>BOND
     1     1     2 1   
     2     1    11 1   
     3     1    12 1   
     4     1    23 1   
     5     2     3 1   
     6     2     8 1   
     7     2    13 1   
     8     3     4 1   
     9     3    14 1   
    10     3    15 1   
    11     4     5 1   
    12     4    16 1   
    13     4    17 1   
    14     5     6 1   
    15     5    18 1   
    16     5    19 1   
    17     6     7 1   
    18     6    20 1   
    19     6    21 1   
    20     7    22 1   
    21     8     9 1   
    22     8    10 1   
@<TRIPOS>SUBSTRUCTURE
     1 LDO         1 TEMP              0 ****  ****    0 ROOT
