@<TRIPOS>MOLECULE
molecule
   23    23     1     0     0
SMALL
bcc


@<TRIPOS>ATOM
      1 C7           0.0000     0.0000     0.0000 c3         1 LDP      -0.047100
      2 C1           1.5060     0.0000     0.0000 ca         1 LDP      -0.128300
      3 C4           4.2750     0.0000    -0.0050 ca         1 LDP       0.129100
      4 C2           2.1950     0.0000     1.1970 ca         1 LDP      -0.142000
      5 C6           2.1960     0.0040    -1.1980 ca         1 LDP      -0.110000
      6 C5           3.5780     0.0050    -1.2030 ca         1 LDP      -0.141000
      7 C3           3.5810    -0.0050     1.2000 ca         1 LDP       0.106100
      8 O1           4.2600    -0.0080     2.3780 oh         1 LDP      -0.494100
      9 O2           5.6350     0.0020    -0.0080 oh         1 LDP      -0.499100
     10 C8          -0.5110    -1.4420    -0.0080 c3         1 LDP       0.090800
     11 N1          -1.9790    -1.4420    -0.0080 nz         1 LDP      -0.811600
     12 H71         -0.3610     0.5160    -0.8820 hc         1 LDP       0.069200
     13 H72         -0.3610     0.5060     0.8870 hc         1 LDP       0.069200
     14 H2           1.6520    -0.0040     2.1340 ha         1 LDP       0.141000
     15 H6           1.6530     0.0080    -2.1350 ha         1 LDP       0.134000
     16 H5           4.1160     0.0080    -2.1430 ha         1 LDP       0.162000
     17 HO1          4.2110    -0.8660     2.7660 ho         1 LDP       0.431000
     18 HO2          5.9480     0.8590    -0.2430 ho         1 LDP       0.441000
     19 H81         -0.1500    -1.9570     0.8740 hx         1 LDP       0.115200
     20 H82         -0.1500    -1.9480    -0.8950 hx         1 LDP       0.115200
     21 HN11        -2.3130    -0.9660    -0.8230 hn         1 LDP       0.456800
     22 HN12        -2.3130    -0.9750     0.8120 hn         1 LDP       0.456800
     23 H13         -2.3120    -2.3860    -0.0130 hn         1 LDP       0.456800
@<TRIPOS>BOND
     1     1     2 1
     2     1    10 1
     3     1    12 1
     4     1    13 1
     5     2     4 ar
     6     2     5 ar
     7     3     6 ar
     8     3     7 ar
     9     3     9 1
    10     4     7 ar
    11     4    14 1
    12     5     6 ar
    13     5    15 1
    14     6    16 1
    15     7     8 1
    16     8    17 1
    17     9    18 1
    18    10    11 1
    19    10    19 1
    20    10    20 1
    21    11    21 1
    22    11    22 1
    23    23    11 1
@<TRIPOS>SUBSTRUCTURE
     1 LDP         1 TEMP              0 ****  ****    0 ROOT
