@<TRIPOS>MOLECULE
molecule
   24    26     1     0     0
SMALL
bcc


@<TRIPOS>ATOM
      1 OAA          0.0000     0.0000     0.0000 o          1 LDR      -0.636500
      2 CAB          5.8600     0.0000     0.0000 ca         1 LDR      -0.085000
      3 CAC          0.2220     0.0310     4.1760 ca         1 LDR      -0.146000
      4 CAD          6.0450     0.0000     1.3740 ca         1 LDR      -0.160000
      5 CAE          1.4840     0.0250     4.7520 ca         1 LDR      -0.097000
      6 CAF          4.5890     0.0050    -0.5370 ca         1 LDR      -0.180000
      7 CAG          0.0760     0.0240     2.8050 ca         1 LDR      -0.058000
      8 CAH          4.9570     0.0060     2.2200 ca         1 LDR      -0.078000
      9 CAI          2.6160     0.0180     3.9620 ca         1 LDR      -0.136000
     10 NAJ          2.2040     0.0100    -0.2410 ns         1 LDR      -0.440100
     11 CAK          1.0980     0.0110     0.5240 c          1 LDR       0.714100
     12 CAL          3.4780     0.0050     0.3020 ca         1 LDR       0.087600
     13 CAM          1.2070     0.0230     1.9910 ca         1 LDR      -0.148600
     14 CAN          3.6670     0.0110     1.6920 ca         1 LDR      -0.090000
     15 CAO          2.4890     0.0180     2.5790 ca         1 LDR       0.010000
     16 HAC         -0.6570     0.0360     4.8100 ha         1 LDR       0.136000
     17 HAD          7.0480    -0.0040     1.7830 ha         1 LDR       0.135000
     18 HAE          1.5820     0.0300     5.8300 ha         1 LDR       0.133000
     19 HAF          4.4560     0.0050    -1.6120 ha         1 LDR       0.136000
     20 HAG         -0.9130     0.0290     2.3630 ha         1 LDR       0.157000
     21 HAH          5.1040     0.0060     3.2930 ha         1 LDR       0.138000
     22 HAI          3.5980     0.0130     4.4190 ha         1 LDR       0.136000
     23 HNAJ         2.1020     0.0120    -1.2360 hn         1 LDR       0.338500
     24 HAB          6.7210    -0.0040    -0.6580 ha         1 LDR       0.135000
@<TRIPOS>BOND
     1    11     1 2
     2     4     2 ar
     3     2     6 ar
     4     2    24 1
     5     5     3 ar
     6     3     7 ar
     7     3    16 1
     8     4     8 ar
     9     4    17 1
    10     9     5 ar
    11     5    18 1
    12     6    12 ar
    13     6    19 1
    14    13     7 ar
    15     7    20 1
    16     8    14 ar
    17     8    21 1
    18     9    15 ar
    19     9    22 1
    20    12    10 1
    21    10    11 1
    22    10    23 1
    23    13    11 1
    24    14    12 ar
    25    15    13 ar
    26    14    15 1
@<TRIPOS>SUBSTRUCTURE
     1 LDR         1 TEMP              0 ****  ****    0 ROOT
