@<TRIPOS>MOLECULE
molecule
   35    36     1     0     0
SMALL
bcc


@<TRIPOS>ATOM
      1 C2           0.0000     0.0000     0.0000 ca         1 LDT      -0.279000
      2 C3           1.3680     0.0100     2.4220 ca         1 LDT      -0.058000
      3 C4           1.3850     0.0000     0.0000 ca         1 LDT       0.216100
      4 C5          -0.6930     0.0050     1.1980 ca         1 LDT       0.185900
      5 C6          -0.0080     0.0100     2.4050 ca         1 LDT      -0.244000
      6 C7           2.0810     0.0000     1.2190 ca         1 LDT      -0.186600
      7 Br8          7.6930     0.0530     8.2400 br         1 LDT      -0.093100
      8 F9          -2.0450     0.0050     1.1920 f          1 LDT      -0.148900
      9 C11          3.5530    -0.0010     1.2300 cs         1 LDT       0.448000
     10 C13          5.6810     0.0080     2.4140 c3         1 LDT       0.153300
     11 F14          5.0650     2.0770     4.2220 f          1 LDT      -0.123900
     12 O15          2.0660    -0.0060    -1.1730 os         1 LDT      -0.158900
     13 S16          4.4210    -0.0130    -0.2450 s          1 LDT      -0.492400
     14 N17          4.2170     0.0080     2.4030 ns         1 LDT      -0.505900
     15 C20          1.0900    -0.0110    -2.2160 c3         1 LDT      -0.042600
     16 C24          6.1730     0.0190     3.8390 ca         1 LDT      -0.134300
     17 C25          7.0750     0.0410     6.4540 ca         1 LDT       0.004100
     18 C26          6.9630    -1.0130     4.3050 ca         1 LDT      -0.087000
     19 C27          5.8360     1.0670     4.6790 ca         1 LDT       0.142900
     20 C28          6.2850     1.0740     5.9880 ca         1 LDT      -0.149000
     21 C29          7.4130    -1.0040     5.6120 ca         1 LDT      -0.122000
     22 C32          1.7860    -0.0180    -3.5540 c          1 LDT       0.892600
     23 O33          1.0640    -0.0230    -4.6850 o          1 LDT      -0.821300
     24 O34          2.9930    -0.0190    -3.6070 o          1 LDT      -0.821300
     25 H2          -0.5410    -0.0020    -0.9380 ha         1 LDT       0.183000
     26 H3           1.8990     0.0120     3.3660 ha         1 LDT       0.116000
     27 H6          -0.5590     0.0160     3.3380 ha         1 LDT       0.131000
     28 H131         6.0460     0.8890     1.8990 h1         1 LDT       0.082200
     29 H132         6.0460    -0.8800     1.9130 h1         1 LDT       0.082200
     30 H17          3.7110    -0.0390     3.2650 hn         1 LDT       0.308500
     31 H201         0.4700    -0.8950    -2.1270 h1         1 LDT       0.033200
     32 H202         0.4710     0.8750    -2.1360 h1         1 LDT       0.033200
     33 H26          7.2290    -1.8310     3.6470 ha         1 LDT       0.152000
     34 H28          6.0220     1.8940     6.6460 ha         1 LDT       0.157000
     35 H29          8.0330    -1.8140     5.9770 ha         1 LDT       0.147000
@<TRIPOS>BOND
     1     1     3 ar
     2     1     4 ar
     3     1    25 1
     4     2     5 ar
     5     2     6 ar
     6     2    26 1
     7     3     6 ar
     8     3    12 1
     9     4     5 ar
    10     4     8 1
    11     5    27 1
    12     6     9 1
    13     7    17 1
    14     9    13 2
    15     9    14 1
    16    10    14 1
    17    10    16 1
    18    10    28 1
    19    10    29 1
    20    11    19 1
    21    12    15 1
    22    14    30 1
    23    15    22 1
    24    15    31 1
    25    15    32 1
    26    16    18 ar
    27    16    19 ar
    28    17    20 ar
    29    17    21 ar
    30    18    21 ar
    31    18    33 1
    32    19    20 ar
    33    20    34 1
    34    21    35 1
    35    22    23 1
    36    22    24 1
@<TRIPOS>SUBSTRUCTURE
     1 LDT         1 TEMP              0 ****  ****    0 ROOT
