@<TRIPOS>MOLECULE
molecule
   20    20     1     0     0
SMALL
bcc


@<TRIPOS>ATOM
      1 O2           0.0000     0.0000     0.0000 oh         1 LDU      -0.567800
      2 C4           1.4290     0.0000     0.0000 c3         1 LDU       0.144100
      3 C3           1.9650     0.0000     1.4460 c3         1 LDU       0.123100
      4 O1           0.8810    -0.0010     2.3770 oh         1 LDU      -0.565800
      5 C2           2.7800     1.3050     1.5730 c3         1 LDU       0.118800
      6 N            2.2140     2.2020     0.5320 n7         1 LDU      -0.763200
      7 C5           1.9660     1.3060    -0.6260 c3         1 LDU       0.148500
      8 C6           0.9200     1.9180    -1.5600 c3         1 LDU       0.159400
      9 O            1.4770     3.0580    -2.2160 oh         1 LDU      -0.621800
     10 H2          -0.3140    -0.8570    -0.2340 ho         1 LDU       0.396000
     11 H4           1.8100    -0.8580    -0.5400 h1         1 LDU       0.033700
     12 H3           2.6060    -0.8580     1.6070 h1         1 LDU       0.029700
     13 H5           2.8900     1.1150    -1.1580 h1         1 LDU       0.038700
     14 H1           1.0530    -0.6280     3.0600 ho         1 LDU       0.392000
     15 H21C         3.8280     1.1140     1.3760 h1         1 LDU       0.047200
     16 H22C         2.6470     1.7380     2.5570 h1         1 LDU       0.047200
     17 H            2.8940     2.8920     0.2810 hn         1 LDU       0.357800
     18 H61C         0.6230     1.1850    -2.3000 h1         1 LDU       0.039200
     19 H62C         0.0540     2.2210    -0.9830 h1         1 LDU       0.039200
     20 HA           0.8770     3.3660    -2.8750 ho         1 LDU       0.403000
@<TRIPOS>BOND
     1     1     2 1
     2     2     3 1
     3     2     7 1
     4     3     4 1
     5     3     5 1
     6     5     6 1
     7     6     7 1
     8     7     8 1
     9     8     9 1
    10     1    10 1
    11     2    11 1
    12     3    12 1
    13     7    13 1
    14     4    14 1
    15     5    15 1
    16     5    16 1
    17     6    17 1
    18     8    18 1
    19     8    19 1
    20     9    20 1
@<TRIPOS>SUBSTRUCTURE
     1 LDU         1 TEMP              0 ****  ****    0 ROOT
