@<TRIPOS>MOLECULE
molecule
   75    75     1     0     0
SMALL
bcc


@<TRIPOS>ATOM
      1 C4           0.0000     0.0000     0.0000 ca         1 LDZ      -0.102000
      2 C5           1.3820     0.0000     0.0000 ca         1 LDZ      -0.133000
      3 C6           2.0730     0.0000     1.1970 ca         1 LDZ      -0.117000
      4 C1           1.3820     0.0000     2.3950 ca         1 LDZ      -0.133000
      5 C2          -0.0010     0.0000     2.3940 ca         1 LDZ      -0.102000
      6 C3          -0.6920    -0.0010     1.1980 ca         1 LDZ      -0.100300
      7 C7          -2.1990     0.0040     1.1970 c3         1 LDZ       0.216700
      8 O8          -2.6870    -1.3620     1.1930 os         1 LDZ      -0.433900
      9 C9          -4.0240    -1.5340     1.1930 c          1 LDZ       0.751100
     10 O31         -4.7600    -0.5680     1.1950 o          1 LDZ      -0.620000
     11 N10         -4.5430    -2.7770     1.1890 ns         1 LDZ      -0.559900
     12 C11         -5.9920    -2.9660     1.2990 c3         1 LDZ       0.065700
     13 C12         -6.2770    -4.2990     1.9430 c          1 LDZ       0.656100
     14 O32         -5.4230    -5.1600     1.9600 o          1 LDZ      -0.621100
     15 C30         -6.6190    -2.9290    -0.0960 c3         1 LDZ      -0.090400
     16 C31         -8.1420    -2.9770     0.0280 c3         1 LDZ      -0.093700
     17 C32         -8.6390    -1.6940     0.6960 c3         1 LDZ      -0.087100
     18 C33         -8.7640    -3.1010    -1.3640 c3         1 LDZ      -0.087100
     19 N13         -7.4810    -4.5330     2.5010 ns         1 LDZ      -0.562900
     20 C14         -7.7220    -5.7830     3.2250 c3         1 LDZ       0.040700
     21 C15         -9.1960    -6.0950     3.2120 c          1 LDZ       0.660100
     22 O34         -9.9700    -5.3460     2.6540 o          1 LDZ      -0.616100
     23 C24         -7.2450    -5.6360     4.6710 c3         1 LDZ      -0.089400
     24 C25         -5.7260    -5.4440     4.6900 c3         1 LDZ      -0.074700
     25 C26         -5.2640    -5.1720     6.1230 c3         1 LDZ      -0.090100
     26 C27         -5.0450    -6.7090     4.1650 c3         1 LDZ      -0.090100
     27 N16         -9.6550    -7.2070     3.8220 ns         1 LDZ      -0.564900
     28 C17        -11.0890    -7.5090     3.8100 c3         1 LDZ      -0.002300
     29 C22        -11.7650    -6.7820     4.9430 c          1 LDZ       0.555900
     30 C18        -11.2930    -9.0160     3.9760 c3         1 LDZ      -0.084400
     31 C19        -10.6900    -9.7490     2.7750 c3         1 LDZ      -0.076700
     32 C20        -10.7590   -11.2580     3.0120 c3         1 LDZ      -0.090600
     33 C21        -11.4780    -9.3930     1.5130 c3         1 LDZ      -0.090600
     34 O33        -11.1170    -6.0840     5.6850 o          1 LDZ      -0.507100
     35 H3          -0.5420    -0.0000    -0.9380 ha         1 LDZ       0.134000
     36 H4           1.9240     0.0000    -0.9380 ha         1 LDZ       0.132000
     37 H5           3.1560    -0.0000     1.1970 ha         1 LDZ       0.130000
     38 H1           1.9230     0.0000     3.3330 ha         1 LDZ       0.132000
     39 H2          -0.5420     0.0000     3.3320 ha         1 LDZ       0.134000
     40 H6          -2.5580     0.5140     2.0830 h1         1 LDZ       0.056700
     41 H7          -2.5580     0.5190     0.3140 h1         1 LDZ       0.056700
     42 H8          -3.9380    -3.5720     1.1320 hn         1 LDZ       0.345500
     43 H9          -6.4140    -2.1740     1.9060 h1         1 LDZ       0.095700
     44 H34         -6.3260    -2.0160    -0.6000 hc         1 LDZ       0.063200
     45 H35         -6.2770    -3.7830    -0.6690 hc         1 LDZ       0.063200
     46 H36         -8.4290    -3.8310     0.6290 hc         1 LDZ       0.062700
     47 H37         -9.7210    -1.7160     0.7600 hc         1 LDZ       0.036700
     48 H38         -8.3300    -0.8380     0.1080 hc         1 LDZ       0.036700
     49 H39         -8.2200    -1.6190     1.6920 hc         1 LDZ       0.036700
     50 H40         -8.5070    -2.2300    -1.9540 hc         1 LDZ       0.036700
     51 H41         -9.8410    -3.1710    -1.2740 hc         1 LDZ       0.036700
     52 H42         -8.3840    -3.9910    -1.8510 hc         1 LDZ       0.036700
     53 H10         -8.1900    -3.8260     2.4760 hn         1 LDZ       0.344500
     54 H11         -7.1780    -6.5880     2.7450 h1         1 LDZ       0.097700
     55 H25         -7.7230    -4.7760     5.1240 hc         1 LDZ       0.054200
     56 H26         -7.5020    -6.5280     5.2290 hc         1 LDZ       0.054200
     57 H27         -5.4610    -4.6030     4.0600 hc         1 LDZ       0.062700
     58 H28         -4.1890    -5.0430     6.1370 hc         1 LDZ       0.036533
     59 H29         -5.7420    -4.2730     6.4920 hc         1 LDZ       0.036533
     60 H30         -5.5360    -6.0100     6.7540 hc         1 LDZ       0.036533
     61 H31         -3.9730    -6.6220     4.2940 hc         1 LDZ       0.036533
     62 H32         -5.4070    -7.5690     4.7160 hc         1 LDZ       0.036533
     63 H33         -5.2730    -6.8330     3.1130 hc         1 LDZ       0.036533
     64 H12         -9.0160    -7.8300     4.2740 hn         1 LDZ       0.323500
     65 H13        -11.5170    -7.1880     2.8680 h1         1 LDZ       0.103700
     66 H23        -12.8310    -6.8940     5.0990 h4         1 LDZ       0.001200
     67 H14        -10.8060    -9.3490     4.8840 hc         1 LDZ       0.054200
     68 H15        -12.3530    -9.2320     4.0360 hc         1 LDZ       0.054200
     69 H16         -9.6560    -9.4500     2.6520 hc         1 LDZ       0.053700
     70 H17        -11.7910   -11.5560     3.1510 hc         1 LDZ       0.037867
     71 H18        -10.3460   -11.7770     2.1550 hc         1 LDZ       0.037867
     72 H19        -10.1880   -11.5120     3.8970 hc         1 LDZ       0.037867
     73 H20        -11.0380    -8.5200     1.0470 hc         1 LDZ       0.037867
     74 H21        -12.5070    -9.1820     1.7770 hc         1 LDZ       0.037867
     75 H22        -11.4460   -10.2260     0.8210 hc         1 LDZ       0.037867
@<TRIPOS>BOND
     1     2     1 ar
     2     2     3 ar
     3     1     6 ar
     4     3     4 ar
     5     6     7 1
     6     6     5 ar
     7     7     8 1
     8     4     5 ar
     9     8     9 1
    10    10     9 2
    11     9    11 1
    12    11    12 1
    13    18    16 1
    14    16    15 1
    15    16    17 1
    16    12    15 1
    17    12    13 1
    18    26    24 1
    19    25    24 1
    20    14    13 2
    21    24    23 1
    22    13    19 1
    23    19    20 1
    24    23    20 1
    25    20    21 1
    26    21    22 2
    27    21    27 1
    28    27    28 1
    29    28    29 1
    30    28    30 1
    31    34    29 2
    32    31    33 1
    33    31    30 1
    34    31    32 1
    35     4    38 1
    36     5    39 1
    37     1    35 1
    38     2    36 1
    39     3    37 1
    40     7    40 1
    41     7    41 1
    42    11    42 1
    43    12    43 1
    44    19    53 1
    45    20    54 1
    46    27    64 1
    47    28    65 1
    48    30    67 1
    49    30    68 1
    50    31    69 1
    51    32    70 1
    52    32    71 1
    53    32    72 1
    54    33    73 1
    55    33    74 1
    56    33    75 1
    57    29    66 1
    58    23    55 1
    59    23    56 1
    60    24    57 1
    61    25    58 1
    62    25    59 1
    63    25    60 1
    64    26    61 1
    65    26    62 1
    66    26    63 1
    67    15    44 1
    68    15    45 1
    69    16    46 1
    70    17    47 1
    71    17    48 1
    72    17    49 1
    73    18    50 1
    74    18    51 1
    75    18    52 1
@<TRIPOS>SUBSTRUCTURE
     1 LDZ         1 TEMP              0 ****  ****    0 ROOT
