@<TRIPOS>MOLECULE
LE2
   22    22     1     0     0
SMALL
bcc


@<TRIPOS>ATOM
      1 C            0.0000     0.0000     0.0000 cs         1 LE2       0.254200
      2 N            1.3480     0.0000     0.0000 ns         1 LE2      -0.020900
      3 S           -0.8000     0.0000     1.3840 s          1 LE2      -0.555400
      4 C1           2.0800     0.0010     1.2690 c3         1 LE2      -0.001000
      5 C2           3.5840     0.0020     0.9910 c3         1 LE2       0.022900
      6 C3           4.3370     0.0030     2.2950 ca         1 LE2      -0.096300
      7 C4           4.6830    -1.1940     2.8950 ca         1 LE2      -0.092000
      8 C5           5.3740    -1.1930     4.0930 ca         1 LE2      -0.095000
      9 C6           5.7170     0.0050     4.6910 ca         1 LE2      -0.096000
     10 C7           5.3720     1.2010     4.0910 ca         1 LE2      -0.095000
     11 C8           4.6870     1.2000     2.8900 ca         1 LE2      -0.092000
     12 H1           1.8180    -0.8830     1.8370 h1         1 LE2       0.057700
     13 H1A          1.8170     0.8860     1.8360 h1         1 LE2       0.057700
     14 H2           3.8470    -0.8830     0.4230 hc         1 LE2       0.019200
     15 H2A          3.8460     0.8860     0.4220 hc         1 LE2       0.019200
     16 H4           4.4140    -2.1330     2.4260 ha         1 LE2       0.105000
     17 H5           5.6450    -2.1300     4.5630 ha         1 LE2       0.104000
     18 H6           6.2570     0.0060     5.6300 ha         1 LE2       0.104000
     19 H7           5.6440     2.1400     4.5580 ha         1 LE2       0.104000
     20 H8           4.4170     2.1380     2.4200 ha         1 LE2       0.105000
     21 H10         -0.5410     0.0010    -0.9380 h5         1 LE2       0.031200
     22 H11          1.8490    -0.0280    -0.8660 hn         1 LE2       0.160500
@<TRIPOS>BOND
     1     1     2 1   
     2     1     3 2   
     3     1    21 1   
     4     2     4 1   
     5     2    22 1   
     6     4     5 1   
     7     4    12 1   
     8     4    13 1   
     9     5     6 1   
    10     5    14 1   
    11     5    15 1   
    12     6     7 ar  
    13     6    11 ar  
    14     7     8 ar  
    15     7    16 1   
    16     8     9 ar  
    17     8    17 1   
    18     9    10 ar  
    19     9    18 1   
    20    10    11 ar  
    21    10    19 1   
    22    11    20 1   
@<TRIPOS>SUBSTRUCTURE
     1 LE2         1 TEMP              0 ****  ****    0 ROOT
