@<TRIPOS>MOLECULE
molecule
   22    22     1     0     0
SMALL
bcc


@<TRIPOS>ATOM
      1 C            0.0000     0.0000     0.0000 cs         1 LE2       0.392200
      2 N            1.3480     0.0000     0.0000 ns         1 LE2      -0.491900
      3 S           -0.8000     0.0000     1.3840 s          1 LE2      -0.523400
      4 C1           2.0800     0.0010     1.2690 c3         1 LE2       0.096000
      5 C2           3.5840     0.0020     0.9910 c3         1 LE2      -0.054100
      6 C3           4.3370     0.0030     2.2950 ca         1 LE2      -0.087300
      7 C4           4.6830    -1.1940     2.8950 ca         1 LE2      -0.120000
      8 C5           5.3740    -1.1930     4.0930 ca         1 LE2      -0.124000
      9 C6           5.7170     0.0050     4.6910 ca         1 LE2      -0.124000
     10 C7           5.3720     1.2010     4.0910 ca         1 LE2      -0.124000
     11 C8           4.6870     1.2000     2.8900 ca         1 LE2      -0.120000
     12 H1           1.8180    -0.8830     1.8370 h1         1 LE2       0.077200
     13 H1A          1.8170     0.8860     1.8360 h1         1 LE2       0.077200
     14 H2           3.8470    -0.8830     0.4230 hc         1 LE2       0.051200
     15 H2A          3.8460     0.8860     0.4220 hc         1 LE2       0.051200
     16 H4           4.4140    -2.1330     2.4260 ha         1 LE2       0.131000
     17 H5           5.6450    -2.1300     4.5630 ha         1 LE2       0.132000
     18 H6           6.2570     0.0060     5.6300 ha         1 LE2       0.131000
     19 H7           5.6440     2.1400     4.5580 ha         1 LE2       0.132000
     20 H8           4.4170     2.1380     2.4200 ha         1 LE2       0.131000
     21 H10         -0.5410     0.0010    -0.9380 h5         1 LE2       0.055200
     22 H11          1.8490    -0.0280    -0.8660 hn         1 LE2       0.311500
@<TRIPOS>BOND
     1     1     2 1
     2     1     3 2
     3     2     4 1
     4     4    12 1
     5     4    13 1
     6     5     4 1
     7     5    14 1
     8     5    15 1
     9     6     5 1
    10     6     7 ar
    11     7    16 1
    12     8     7 ar
    13     8    17 1
    14     9     8 ar
    15     9    18 1
    16    10     9 ar
    17    10    11 ar
    18    10    19 1
    19    11     6 ar
    20    11    20 1
    21     1    21 1
    22     2    22 1
@<TRIPOS>SUBSTRUCTURE
     1 LE2         1 TEMP              0 ****  ****    0 ROOT
