@<TRIPOS>MOLECULE
LE3
   23    22     1     0     0
SMALL
bcc


@<TRIPOS>ATOM
      1 C            0.0000     0.0000     0.0000 cs         1 LE3       0.254200
      2 N            1.3480     0.0000     0.0000 ns         1 LE3      -0.020900
      3 S           -0.8000     0.0000     1.3850 s          1 LE3      -0.552400
      4 C1           2.0810    -0.0060     1.2680 c3         1 LE3      -0.001000
      5 C2           3.5850    -0.0040     0.9890 c3         1 LE3      -0.042400
      6 C3           4.3500    -0.0100     2.3140 c3         1 LE3       0.013600
      7 C4           5.8540    -0.0070     2.0340 c3         1 LE3       0.093900
      8 S5           6.7620    -0.0140     3.6040 s4         1 LE3      -0.063400
      9 O5A          6.4820     1.1830     4.3190 o          1 LE3      -0.448200
     10 C5B          8.4960    -0.0120     3.0740 c3         1 LE3       0.130200
     11 H1           1.8190     0.8760     1.8400 h1         1 LE3       0.056200
     12 H1A          1.8200    -0.8930     1.8320 h1         1 LE3       0.056200
     13 H2           3.8460     0.8830     0.4240 hc         1 LE3       0.016700
     14 H2A          3.8460    -0.8860     0.4170 hc         1 LE3       0.016700
     15 H3           4.0880     0.8720     2.8860 hc         1 LE3       0.033200
     16 H3A          4.0890    -0.8970     2.8780 hc         1 LE3       0.033200
     17 H4           6.1150     0.8800     1.4700 h1         1 LE3       0.047700
     18 H4A          6.1160    -0.8890     1.4620 h1         1 LE3       0.047700
     19 H5B          9.1400    -0.0010     3.9450 h1         1 LE3       0.045700
     20 H5BA         8.6880     0.8680     2.4720 h1         1 LE3       0.045700
     21 H5BB         8.6950    -0.9000     2.4880 h1         1 LE3       0.045700
     22 H12         -0.5420     0.0000    -0.9380 h5         1 LE3       0.031200
     23 H13          1.8480     0.0040    -0.8670 hn         1 LE3       0.159500
@<TRIPOS>BOND
     1     1     2 1   
     2     1     3 2   
     3     1    22 1   
     4     2     4 1   
     5     2    23 1   
     6     4     5 1   
     7     4    11 1   
     8     4    12 1   
     9     5     6 1   
    10     5    13 1   
    11     5    14 1   
    12     6     7 1   
    13     6    15 1   
    14     6    16 1   
    15     7     8 1   
    16     7    17 1   
    17     7    18 1   
    18     8     9 2   
    19     8    10 1   
    20    10    19 1   
    21    10    20 1   
    22    10    21 1   
@<TRIPOS>SUBSTRUCTURE
     1 LE3         1 TEMP              0 ****  ****    0 ROOT
