@<TRIPOS>MOLECULE
molecule
   23    22     1     0     0
SMALL
bcc


@<TRIPOS>ATOM
      1 C            0.0000     0.0000     0.0000 cs         1 LE3       0.393200
      2 N            1.3480     0.0000     0.0000 ns         1 LE3      -0.489900
      3 S           -0.8000     0.0000     1.3850 s          1 LE3      -0.524400
      4 C1           2.0810    -0.0060     1.2680 c3         1 LE3       0.092000
      5 C2           3.5850    -0.0040     0.9890 c3         1 LE3      -0.098400
      6 C3           4.3500    -0.0100     2.3140 c3         1 LE3      -0.048400
      7 C4           5.8540    -0.0070     2.0340 c3         1 LE3      -0.085100
      8 S5           6.7620    -0.0140     3.6040 s4         1 LE3       0.266600
      9 O5A          6.4820     1.1830     4.3190 o          1 LE3      -0.500200
     10 C5B          8.4960    -0.0120     3.0740 c3         1 LE3      -0.099800
     11 H1           1.8190     0.8760     1.8400 h1         1 LE3       0.073700
     12 H1A          1.8200    -0.8930     1.8320 h1         1 LE3       0.073700
     13 H2           3.8460     0.8830     0.4240 hc         1 LE3       0.046200
     14 H2A          3.8460    -0.8860     0.4170 hc         1 LE3       0.046200
     15 H3           4.0880     0.8720     2.8860 hc         1 LE3       0.056200
     16 H3A          4.0890    -0.8970     2.8780 hc         1 LE3       0.056200
     17 H4           6.1150     0.8800     1.4700 h1         1 LE3       0.074200
     18 H4A          6.1160    -0.8890     1.4620 h1         1 LE3       0.074200
     19 H5B          9.1400    -0.0010     3.9450 h1         1 LE3       0.075367
     20 H5BA         8.6880     0.8680     2.4720 h1         1 LE3       0.075367
     21 H5BB         8.6950    -0.9000     2.4880 h1         1 LE3       0.075367
     22 H12         -0.5420     0.0000    -0.9380 h5         1 LE3       0.056200
     23 H13          1.8480     0.0040    -0.8670 hn         1 LE3       0.311500
@<TRIPOS>BOND
     1     1     2 1
     2     3     1 2
     3     4     2 1
     4     4     5 1
     5     4    11 1
     6     4    12 1
     7     5     6 1
     8     5    13 1
     9     5    14 1
    10     6     7 1
    11     6    15 1
    12     6    16 1
    13     7    17 1
    14     7    18 1
    15     8     7 1
    16     8     9 2
    17     8    10 1
    18    10    19 1
    19    10    20 1
    20    10    21 1
    21     1    22 1
    22     2    23 1
@<TRIPOS>SUBSTRUCTURE
     1 LE3         1 TEMP              0 ****  ****    0 ROOT
