@<TRIPOS>MOLECULE
molecule
   16    15     1     0     0
SMALL
bcc


@<TRIPOS>ATOM
      1 C2           0.0000     0.0000     0.0000 c          1 LEA       0.890600
      2 O2           1.3430     0.0000     0.0000 o          1 LEA      -0.858800
      3 C3          -0.7540     0.0000     1.3050 c3         1 LEA      -0.183400
      4 C4          -2.2580    -0.0000     1.0270 c3         1 LEA      -0.063400
      5 C5          -3.0220    -0.0000     2.3520 c3         1 LEA      -0.091400
      6 C6          -4.5270    -0.0010     2.0720 c3         1 LEA      -0.090100
      7 O1          -0.6040     0.0040    -1.0460 o          1 LEA      -0.858800
      8 H31         -0.4910    -0.8840     1.8740 hc         1 LEA       0.025700
      9 H32         -0.4920     0.8850     1.8730 hc         1 LEA       0.025700
     10 H41         -2.5190    -0.8850     0.4590 hc         1 LEA       0.044700
     11 H42         -2.5200     0.8840     0.4590 hc         1 LEA       0.044700
     12 H51         -2.7600    -0.8850     2.9200 hc         1 LEA       0.026700
     13 H52         -2.7610     0.8840     2.9200 hc         1 LEA       0.026700
     14 H61         -5.0680    -0.0010     3.0100 hc         1 LEA       0.020367
     15 H62         -4.7880    -0.8850     1.5040 hc         1 LEA       0.020367
     16 H63         -4.7890     0.8840     1.5040 hc         1 LEA       0.020367
@<TRIPOS>BOND
     1     1     2 1
     2     1     3 1
     3     1     7 1
     4     3     4 1
     5     3     8 1
     6     3     9 1
     7     4     5 1
     8     4    10 1
     9     4    11 1
    10     5     6 1
    11     5    12 1
    12     5    13 1
    13     6    14 1
    14     6    15 1
    15     6    16 1
@<TRIPOS>SUBSTRUCTURE
     1 LEA         1 TEMP              0 ****  ****    0 ROOT
