@<TRIPOS>MOLECULE
LEA
   16    15     1     0     0
SMALL
bcc


@<TRIPOS>ATOM
      1 C2          0.0450   -0.0010   -0.0260 c         1 LEA      0.907600
      2 O2          1.3070   -0.0030    0.0750 o         1 LEA     -0.854800
      3 C3         -0.7630    0.0010    1.2820 c3        1 LEA     -0.193400
      4 C4         -2.2510   -0.0010    1.0410 c3        1 LEA     -0.062400
      5 C5         -3.0360    0.0010    2.3370 c3        1 LEA     -0.082400
      6 C6         -4.5220    0.0000    2.0910 c3        1 LEA     -0.086100
      7 O1         -0.5680    0.0010   -1.1330 o         1 LEA     -0.854800
      8 H31        -0.4670    0.9040    1.8730 hc        1 LEA      0.018700
      9 H32        -0.4660   -0.9010    1.8760 hc        1 LEA      0.018700
     10 H41        -2.5230   -0.9000    0.4290 hc        1 LEA      0.043700
     11 H42        -2.5240    0.8970    0.4260 hc        1 LEA      0.043700
     12 H51        -2.7560    0.9030    2.9420 hc        1 LEA      0.022700
     13 H52        -2.7550   -0.9000    2.9440 hc        1 LEA      0.022700
     14 H61        -4.8230   -0.9040    1.5090 hc        1 LEA      0.018700
     15 H62        -4.8240    0.9040    1.5080 hc        1 LEA      0.018700
     16 H63        -5.0830    0.0010    3.0570 hc        1 LEA      0.018700
@<TRIPOS>BOND
     1    1    2 1   
     2    1    3 1   
     3    1    7 1   
     4    3    4 1   
     5    3    8 1   
     6    3    9 1   
     7    4    5 1   
     8    4   10 1   
     9    4   11 1   
    10    5    6 1   
    11    5   12 1   
    12    5   13 1   
    13    6   14 1   
    14    6   15 1   
    15    6   16 1   
@<TRIPOS>SUBSTRUCTURE
     1 LEA         1 TEMP              0 ****  ****    0 ROOT
