@<TRIPOS>MOLECULE
molecule
   42    43     1     0     0
SMALL
bcc


@<TRIPOS>ATOM
      1 C8           0.0000     0.0000     0.0000 c3         1 LEC      -0.169100
      2 C7           1.5070     0.0000     0.0000 c          1 LEC       0.660100
      3 O7           2.1140     0.0000     1.0500 o          1 LEC      -0.583100
      4 N2           2.1800    -0.0000    -1.1670 ns         1 LEC      -0.583900
      5 C2           3.6450     0.0010    -1.1680 c3         1 LEC       0.089700
      6 C3           4.1570     0.6100    -2.4760 c3         1 LEC       0.121100
      7 O3           3.7450     1.9760    -2.5600 oh         1 LEC      -0.589800
      8 C4           5.6870     0.5330    -2.4990 c3         1 LEC       0.100100
      9 O4           6.1710     1.0330    -3.7470 oh         1 LEC      -0.601800
     10 C5           6.1200    -0.9260    -2.3300 c3         1 LEC       0.152100
     11 C6           7.6470    -1.0020    -2.2910 c3         1 LEC       0.152400
     12 O6           8.0530    -2.3730    -2.2500 oh         1 LEC      -0.601800
     13 O5           5.5860    -1.4400    -1.1090 os         1 LEC      -0.421600
     14 C1           4.1570    -1.4380    -1.0500 c3         1 LEC       0.329900
     15 O1           3.7300    -1.9960     0.1950 os         1 LEC      -0.273900
     16 C1'          4.0130    -3.3070     0.4130 ca         1 LEC       0.182100
     17 C2'          3.6280    -3.9120     1.6000 ca         1 LEC      -0.187000
     18 C3'          3.9170    -5.2450     1.8200 ca         1 LEC      -0.037000
     19 C4'          4.5880    -5.9750     0.8570 ca         1 LEC      -0.197200
     20 N1'          4.8950    -7.4040     1.0940 no         1 LEC       0.299200
     21 O2'          4.5560    -7.9350     2.1360 o          1 LEC      -0.213500
     22 O1'          5.4870    -8.0490     0.2470 o          1 LEC      -0.213500
     23 C5'          4.9720    -5.3740    -0.3280 ca         1 LEC      -0.037000
     24 C6'          4.6820    -4.0430    -0.5540 ca         1 LEC      -0.187000
     25 H8          -0.3610    -0.8810    -0.5170 hc         1 LEC       0.062367
     26 H8A         -0.3610     0.8880    -0.5040 hc         1 LEC       0.062367
     27 H8B         -0.3610    -0.0070     1.0210 hc         1 LEC       0.062367
     28 HN2          1.6800    -0.0040    -2.0340 hn         1 LEC       0.311500
     29 H2           4.0120     0.5830    -0.3310 h1         1 LEC       0.118700
     30 H3           3.7560     0.0530    -3.3140 h1         1 LEC       0.046700
     31 HO3          3.3150     2.1240    -3.3860 ho         1 LEC       0.412000
     32 H4           6.0900     1.1250    -1.6860 h1         1 LEC       0.068700
     33 HO4          6.5400     1.8920    -3.6200 ho         1 LEC       0.418000
     34 H5           5.7450    -1.5110    -3.1610 h1         1 LEC       0.060700
     35 H6           8.0120    -0.4910    -1.4090 h1         1 LEC       0.041200
     36 H6A          8.0550    -0.5310    -3.1770 h1         1 LEC       0.041200
     37 HO6          8.9900    -2.4250    -2.3410 ho         1 LEC       0.409000
     38 H1           3.7630    -2.0270    -1.8690 h2         1 LEC       0.037700
     39 H2'          3.1020    -3.3400     2.3550 ha         1 LEC       0.163500
     40 H3'          3.6160    -5.7190     2.7460 ha         1 LEC       0.167000
     41 H5'          5.4960    -5.9500    -1.0810 ha         1 LEC       0.167000
     42 H6'          4.9830    -3.5720    -1.4820 ha         1 LEC       0.163500
@<TRIPOS>BOND
     1     1     2 1
     2     2     3 2
     3     2     4 1
     4     4     5 1
     5     5     6 1
     6     5    14 1
     7     6     7 1
     8     6     8 1
     9     8     9 1
    10     8    10 1
    11    10    11 1
    12    10    13 1
    13    11    12 1
    14    13    14 1
    15    14    15 1
    16    15    16 1
    17    16    17 ar
    18    16    24 ar
    19    17    18 ar
    20    18    19 ar
    21    19    20 1
    22    19    23 ar
    23    20    21 1
    24    20    22 1
    25    23    24 ar
    26     1    25 1
    27     1    26 1
    28     1    27 1
    29     4    28 1
    30     5    29 1
    31     6    30 1
    32     7    31 1
    33     8    32 1
    34     9    33 1
    35    10    34 1
    36    11    35 1
    37    11    36 1
    38    12    37 1
    39    14    38 1
    40    17    39 1
    41    18    40 1
    42    23    41 1
    43    24    42 1
@<TRIPOS>SUBSTRUCTURE
     1 LEC         1 TEMP              0 ****  ****    0 ROOT
