@<TRIPOS>MOLECULE
LEG
   36    36     1     0     0
SMALL
bcc


@<TRIPOS>ATOM
      1 C27         0.0370   -0.1200   -0.0970 c3        1 LEG     -0.093100
      2 C24         1.5410   -0.0630   -0.0300 c3        1 LEG     -0.080400
      3 C21         2.0330   -0.0400    1.4010 c3        1 LEG     -0.079400
      4 C18         3.5440    0.0180    1.4630 c3        1 LEG     -0.080400
      5 C15         4.0330    0.0390    2.8960 c3        1 LEG     -0.076400
      6 C14         5.5480    0.1020    2.9530 c3        1 LEG     -0.042100
      7 C1          6.0470    0.0890    4.3550 ca        1 LEG     -0.050300
      8 C6          6.5710    1.2490    4.9360 ca        1 LEG     -0.142000
      9 C5          7.0420    1.2290    6.2470 ca        1 LEG     -0.082500
     10 C2          6.0020   -1.0920    5.1070 ca        1 LEG     -0.142000
     11 C3          6.4800   -1.1170    6.4140 ca        1 LEG     -0.082500
     12 C4          7.0090    0.0430    6.9920 ca        1 LEG     -0.170600
     13 C11         7.5180    0.0510    8.3810 c         1 LEG      0.573900
     14 O13         7.4850    1.0770    9.0760 o         1 LEG     -0.536100
     15 C12         8.0840   -1.2150    8.8840 ce        1 LEG     -0.258200
     16 C33         8.2890   -1.4410   10.1820 c2        1 LEG     -0.135000
     17 H271       -0.3460   -1.0390    0.4100 hc        1 LEG      0.033033
     18 H272       -0.4140    0.7700    0.4050 hc        1 LEG      0.033033
     19 H273       -0.3040   -0.1360   -1.1600 hc        1 LEG      0.033033
     20 H241        1.9760   -0.9510   -0.5610 hc        1 LEG      0.038700
     21 H242        1.9080    0.8530   -0.5660 hc        1 LEG      0.038700
     22 H211        1.6000    0.8480    1.9330 hc        1 LEG      0.041200
     23 H212        1.6690   -0.9560    1.9380 hc        1 LEG      0.041200
     24 H181        3.9080    0.9350    0.9280 hc        1 LEG      0.040200
     25 H182        3.9770   -0.8690    0.9300 hc        1 LEG      0.040200
     26 H151        3.6760   -0.8800    3.4320 hc        1 LEG      0.045700
     27 H152        3.5990    0.9250    3.4300 hc        1 LEG      0.045700
     28 H141        5.9780   -0.7760    2.3990 hc        1 LEG      0.050700
     29 H142        5.9010    1.0300    2.4270 hc        1 LEG      0.050700
     30 H2          5.5830   -2.0060    4.6580 ha        1 LEG      0.136000
     31 H3          6.4290   -2.0510    6.9950 ha        1 LEG      0.143000
     32 H5          7.4390    2.1450    6.7120 ha        1 LEG      0.143000
     33 H6          6.6080    2.1840    4.3580 ha        1 LEG      0.136000
     34 H12         8.3420   -1.9620    8.1170 ha        1 LEG      0.137000
     35 H331        8.0430   -0.6940   10.9520 ha        1 LEG      0.125000
     36 H332        8.7140   -2.3840   10.5530 ha        1 LEG      0.125000
@<TRIPOS>BOND
     1    1    2 1   
     2    1   17 1   
     3    1   18 1   
     4    1   19 1   
     5    2    3 1   
     6    2   20 1   
     7    2   21 1   
     8    3    4 1   
     9    3   22 1   
    10    3   23 1   
    11    4    5 1   
    12    4   24 1   
    13    4   25 1   
    14    5    6 1   
    15    5   26 1   
    16    5   27 1   
    17    6    7 1   
    18    6   28 1   
    19    6   29 1   
    20    7    8 ar  
    21    7   10 ar  
    22    8    9 ar  
    23    8   33 1   
    24    9   12 ar  
    25    9   32 1   
    26   10   11 ar  
    27   10   30 1   
    28   11   12 ar  
    29   11   31 1   
    30   12   13 1   
    31   13   14 2   
    32   13   15 1   
    33   15   16 2   
    34   15   34 1   
    35   16   35 1   
    36   16   36 1   
@<TRIPOS>SUBSTRUCTURE
     1 LEG         1 TEMP              0 ****  ****    0 ROOT
