@<TRIPOS>MOLECULE
molecule
   36    36     1     0     0
SMALL
bcc


@<TRIPOS>ATOM
      1 C27          0.0000     0.0000     0.0000 c3         1 LEG      -0.092100
      2 C24          1.5300     0.0000     0.0000 c3         1 LEG      -0.084400
      3 C21          2.0410     0.0000     1.4420 c3         1 LEG      -0.081400
      4 C18          3.5710     0.0000     1.4420 c3         1 LEG      -0.083400
      5 C15          4.0810     0.0000     2.8840 c3         1 LEG      -0.077400
      6 C14          5.6110     0.0000     2.8830 c3         1 LEG      -0.041100
      7 C1           6.1140     0.0000     4.3050 ca         1 LEG      -0.052300
      8 C6           6.3380     1.2010     4.9560 ca         1 LEG      -0.142000
      9 C5           6.7990     1.2090     6.2550 ca         1 LEG      -0.077000
     10 C2           6.3430    -1.1990     4.9550 ca         1 LEG      -0.142000
     11 C3           6.8030    -1.2060     6.2550 ca         1 LEG      -0.077000
     12 C4           7.0380     0.0020     6.9150 ca         1 LEG      -0.174600
     13 C11          7.5320     0.0030     8.3080 c          1 LEG       0.578900
     14 O13          7.7310     1.0570     8.8830 o          1 LEG      -0.539100
     15 C12          7.7830    -1.2690     9.0000 ce         1 LEG      -0.265200
     16 C33          8.2280    -1.2680    10.2550 c2         1 LEG      -0.131000
     17 H271        -0.3610     0.8840     0.5110 hc         1 LEG       0.033033
     18 H272        -0.3610    -0.8850     0.5110 hc         1 LEG       0.033033
     19 H273        -0.3610     0.0000    -1.0210 hc         1 LEG       0.033033
     20 H241         1.8910     0.8840    -0.5110 hc         1 LEG       0.039700
     21 H242         1.8910    -0.8840    -0.5110 hc         1 LEG       0.039700
     22 H211         1.6800     0.8840     1.9530 hc         1 LEG       0.042200
     23 H212         1.6800    -0.8840     1.9530 hc         1 LEG       0.042200
     24 H181         3.9320    -0.8850     0.9310 hc         1 LEG       0.041200
     25 H182         3.9320     0.8840     0.9310 hc         1 LEG       0.041200
     26 H151         3.7200    -0.8840     3.3950 hc         1 LEG       0.046200
     27 H152         3.7200     0.8850     3.3950 hc         1 LEG       0.046200
     28 H141         5.9720     0.8850     2.3730 hc         1 LEG       0.051200
     29 H142         5.9720    -0.8840     2.3730 hc         1 LEG       0.051200
     30 H2           6.1610    -2.1350     4.4420 ha         1 LEG       0.134500
     31 H3           6.9840    -2.1460     6.7610 ha         1 LEG       0.142500
     32 H5           6.9770     2.1500     6.7620 ha         1 LEG       0.142500
     33 H6           6.1520     2.1370     4.4420 ha         1 LEG       0.134500
     34 H12          7.6060    -2.2080     8.4890 ha         1 LEG       0.132000
     35 H331         8.4130    -2.2060    10.7650 ha         1 LEG       0.127000
     36 H332         8.4050    -0.3300    10.7670 ha         1 LEG       0.127000
@<TRIPOS>BOND
     1     1     2 1
     2     1    17 1
     3     1    18 1
     4     1    19 1
     5     2     3 1
     6     2    20 1
     7     2    21 1
     8     3     4 1
     9     3    22 1
    10     3    23 1
    11     4     5 1
    12     4    24 1
    13     4    25 1
    14     5     6 1
    15     5    26 1
    16     5    27 1
    17     6     7 1
    18     6    28 1
    19     6    29 1
    20     7    10 ar
    21     7     8 ar
    22     8     9 ar
    23     8    33 1
    24     9    12 ar
    25     9    32 1
    26    10    11 ar
    27    10    30 1
    28    11    12 ar
    29    11    31 1
    30    12    13 1
    31    13    14 2
    32    13    15 1
    33    15    16 2
    34    15    34 1
    35    16    35 1
    36    16    36 1
@<TRIPOS>SUBSTRUCTURE
     1 LEG         1 TEMP              0 ****  ****    0 ROOT
