@<TRIPOS>MOLECULE
LEL
   19    20     1     0     0
SMALL
bcc


@<TRIPOS>ATOM
      1 O1         -0.0450    0.0040    0.0440 o         1 LEL     -0.820300
      2 C5          1.2160    0.0140    0.0760 c         1 LEL      0.908200
      3 O           1.9090    0.0280    1.1310 o         1 LEL     -0.820300
      4 C4          1.9610    0.0090   -1.2540 ca        1 LEL     -0.104600
      5 C           3.3560    0.0210   -1.2900 ca        1 LEL     -0.208300
      6 C3          1.2640   -0.0080   -2.4710 ca        1 LEL     -0.175300
      7 C2          1.9900   -0.0120   -3.6790 ca        1 LEL      0.316300
      8 N7          3.3550   -0.0010   -3.7190 nb        1 LEL     -0.694000
      9 C1          3.9990    0.0150   -2.5420 ca        1 LEL      0.355200
     10 C6          1.2910   -0.0290   -4.9600 cc        1 LEL      0.193000
     11 N3         -0.0600   -0.0430   -5.1620 nd        1 LEL     -0.486800
     12 N2         -0.2070   -0.0560   -6.4930 na        1 LEL      0.114900
     13 N1          0.9250   -0.0530   -7.2100 nd        1 LEL     -0.527800
     14 C7          1.9170   -0.0360   -6.2900 cc        1 LEL      0.221900
     15 HA          3.9210    0.0340   -0.3470 ha        1 LEL      0.162000
     16 H3          0.1630   -0.0170   -2.4480 ha        1 LEL      0.175000
     17 H1          5.1000    0.0240   -2.6090 h4        1 LEL     -0.004900
     18 H7          2.9820   -0.0290   -6.5180 h4        1 LEL      0.063100
     19 H2         -1.1080   -0.0670   -6.9200 hn        1 LEL      0.334700
@<TRIPOS>BOND
     1    1    2 1   
     2    2    3 1   
     3    2    4 1   
     4    4    5 ar  
     5    4    6 ar  
     6    5    9 ar  
     7    5   15 1   
     8    6    7 ar  
     9    6   16 1   
    10    7    8 ar  
    11    7   10 1   
    12    8    9 ar  
    13    9   17 1   
    14   10   11 2   
    15   10   14 1   
    16   11   12 1   
    17   12   13 1   
    18   12   19 1   
    19   13   14 2   
    20   14   18 1   
@<TRIPOS>SUBSTRUCTURE
     1 LEL         1 TEMP              0 ****  ****    0 ROOT
