@<TRIPOS>MOLECULE
molecule
   19    20     1     0     0
SMALL
bcc


@<TRIPOS>ATOM
      1 O1           0.0000     0.0000     0.0000 o          1 LEL      -0.827300
      2 C5           1.2150     0.0000     0.0000 c          1 LEL       0.881200
      3 O            1.8890     0.0000     1.1660 o          1 LEL      -0.827300
      4 C4           1.9550    -0.0040    -1.2830 ca         1 LEL      -0.078600
      5 C            3.3540    -0.0040    -1.3050 ca         1 LEL      -0.209300
      6 C3           1.2750    -0.0150    -2.5030 ca         1 LEL      -0.189300
      7 C2           2.0120    -0.0200    -3.6830 ca         1 LEL       0.352300
      8 N7           3.3370    -0.0140    -3.6540 nb         1 LEL      -0.720000
      9 C1           4.0100    -0.0080    -2.5210 ca         1 LEL       0.375200
     10 C6           1.3070    -0.0320    -4.9890 cc         1 LEL       0.191000
     11 N3           0.0010    -0.0380    -5.1920 nd         1 LEL      -0.532800
     12 N2          -0.2170    -0.0470    -6.4600 na         1 LEL       0.184900
     13 N1           0.8870    -0.0460    -7.1180 nd         1 LEL      -0.572800
     14 C7           1.8890    -0.0310    -6.2710 cc         1 LEL       0.224900
     15 HA           3.9170     0.0010    -0.3790 ha         1 LEL       0.160000
     16 H3           0.1920    -0.0200    -2.5300 ha         1 LEL       0.167000
     17 H1           5.0930    -0.0060    -2.5430 h4         1 LEL       0.000100
     18 H7           2.9460    -0.0270    -6.5080 h4         1 LEL       0.066100
     19 H2          -1.1260    -0.0560    -6.8790 hn         1 LEL       0.355700
@<TRIPOS>BOND
     1     1     2 1
     2     2     3 1
     3     2     4 1
     4     4     5 ar
     5     4     6 ar
     6     5     9 ar
     7     6     7 ar
     8     7     8 ar
     9     7    10 1
    10     8     9 ar
    11    10    11 2
    12    10    14 1
    13    11    12 1
    14    12    13 1
    15    13    14 2
    16     5    15 1
    17     6    16 1
    18     9    17 1
    19    14    18 1
    20    12    19 1
@<TRIPOS>SUBSTRUCTURE
     1 LEL         1 TEMP              0 ****  ****    0 ROOT
