@<TRIPOS>MOLECULE
molecule
   27    28     1     0     0
SMALL
bcc


@<TRIPOS>ATOM
      1 C2           0.0000     0.0000     0.0000 c3         1 LEO      -0.059400
      2 C3           0.3510     1.8110     1.8990 cx         1 LEO       0.058800
      3 C4           2.0210     0.0000     1.4500 c3         1 LEO      -0.076400
      4 C5           1.8050     1.3930     2.0400 c3         1 LEO      -0.053400
      5 C6           1.5280     0.0000     0.0000 c3         1 LEO      -0.030500
      6 C7          -0.5260     1.1630     0.8390 cx         1 LEO       0.049100
      7 C8           0.0740     3.2860     2.1980 c3         1 LEO      -0.076100
      8 O14         -0.6880     0.8980     2.2210 op         1 LEO      -0.379600
      9 C17          2.0340    -1.2300    -0.7070 c2         1 LEO      -0.121400
     10 C21          2.7930    -1.1100    -1.7680 c2         1 LEO      -0.226000
     11 C22          1.6670    -2.5980    -0.1950 c3         1 LEO      -0.055900
     12 H21         -0.3580    -0.9330     0.4190 hc         1 LEO       0.058200
     13 H22         -0.3570     0.1030    -1.0170 hc         1 LEO       0.058200
     14 H41          1.4600    -0.7280     2.0240 hc         1 LEO       0.054200
     15 H42          3.0760    -0.2450     1.4750 hc         1 LEO       0.054200
     16 H51          2.4330     2.1030     1.5160 hc         1 LEO       0.054200
     17 H52          2.0720     1.3790     3.0900 hc         1 LEO       0.054200
     18 H6           1.8890     0.8880    -0.5040 hc         1 LEO       0.057700
     19 H7          -1.3030     1.7920     0.4210 h1         1 LEO       0.085700
     20 H81         -0.9750     3.4160     2.4340 hc         1 LEO       0.046700
     21 H82          0.3260     3.8840     1.3310 hc         1 LEO       0.046700
     22 H83          0.6750     3.6020     3.0420 hc         1 LEO       0.046700
     23 H211         3.1570    -1.9950    -2.2770 ha         1 LEO       0.113000
     24 H212         3.0570    -0.1270    -2.1360 ha         1 LEO       0.113000
     25 H221         1.1030    -2.5000     0.7240 hc         1 LEO       0.043367
     26 H222         2.5690    -3.1670    -0.0060 hc         1 LEO       0.043367
     27 H223         1.0650    -3.1110    -0.9360 hc         1 LEO       0.043367
@<TRIPOS>BOND
     1     1     5 1
     2     1     6 1
     3     1    12 1
     4     1    13 1
     5     2     4 1
     6     2     6 1
     7     2     7 1
     8     2     8 1
     9     3     4 1
    10     3     5 1
    11     3    14 1
    12     3    15 1
    13     4    16 1
    14     4    17 1
    15     5     9 1
    16     5    18 1
    17     6     8 1
    18     6    19 1
    19     7    20 1
    20     7    21 1
    21     7    22 1
    22     9    10 2
    23     9    11 1
    24    10    23 1
    25    10    24 1
    26    11    25 1
    27    11    26 1
    28    11    27 1
@<TRIPOS>SUBSTRUCTURE
     1 LEO         1 TEMP              0 ****  ****    0 ROOT
