@<TRIPOS>MOLECULE
LEO
   27    28     1     0     0
SMALL
bcc


@<TRIPOS>ATOM
      1 C2          0.0110   -0.0200    0.0150 c3        1 LEO     -0.069400
      2 C3          0.3290    1.8420    1.8220 cx        1 LEO      0.078800
      3 C4          2.0820    0.0890    1.4090 c3        1 LEO     -0.073400
      4 C5          1.7700    1.4490    2.0000 c3        1 LEO     -0.062400
      5 C6          1.5350   -0.0290   -0.0100 c3        1 LEO     -0.027500
      6 C7         -0.5290    1.1160    0.8350 cx        1 LEO      0.069100
      7 C8          0.0180    3.2560    2.2000 c3        1 LEO     -0.083100
      8 O14        -0.6470    0.8690    2.2480 os        1 LEO     -0.404600
      9 C17         2.0650   -1.2510   -0.6950 c2        1 LEO     -0.108400
     10 C21         2.9210   -1.1520   -1.7180 c2        1 LEO     -0.226000
     11 C22         1.6020   -2.5680   -0.1940 c3        1 LEO     -0.061900
     12 H21        -0.3690   -0.9850    0.4470 hc        1 LEO      0.059700
     13 H22        -0.3760    0.0640   -1.0330 hc        1 LEO      0.059700
     14 H41         1.6240   -0.7080    2.0530 hc        1 LEO      0.052700
     15 H42         3.1910   -0.0680    1.4020 hc        1 LEO      0.052700
     16 H51         2.0140    1.4440    3.0950 hc        1 LEO      0.053700
     17 H52         2.4070    2.2320    1.5100 hc        1 LEO      0.053700
     18 H6          1.8760    0.8820   -0.5850 hc        1 LEO      0.051700
     19 H7         -1.4150    1.6220    0.4030 h1        1 LEO      0.085700
     20 H81         0.5350    3.9560    1.5000 hc        1 LEO      0.048367
     21 H82        -1.0820    3.4440    2.1560 hc        1 LEO      0.048367
     22 H83         0.3700    3.4610    3.2400 hc        1 LEO      0.048367
     23 H211        3.2690   -0.1870   -2.1080 ha        1 LEO      0.112500
     24 H212        3.3290   -2.0340   -2.2280 ha        1 LEO      0.112500
     25 H221        0.5620   -2.7710   -0.5560 hc        1 LEO      0.043700
     26 H222        1.5920   -2.5860    0.9240 hc        1 LEO      0.043700
     27 H223        2.2630   -3.3940   -0.5550 hc        1 LEO      0.043700
@<TRIPOS>BOND
     1    1    5 1   
     2    1    6 1   
     3    1   12 1   
     4    1   13 1   
     5    2    4 1   
     6    2    6 1   
     7    2    7 1   
     8    2    8 1   
     9    3    4 1   
    10    3    5 1   
    11    3   14 1   
    12    3   15 1   
    13    4   16 1   
    14    4   17 1   
    15    5    9 1   
    16    5   18 1   
    17    6    8 1   
    18    6   19 1   
    19    7   20 1   
    20    7   21 1   
    21    7   22 1   
    22    9   10 2   
    23    9   11 1   
    24   10   23 1   
    25   10   24 1   
    26   11   25 1   
    27   11   26 1   
    28   11   27 1   
@<TRIPOS>SUBSTRUCTURE
     1 LEO         1 TEMP              0 ****  ****    0 ROOT
