@<TRIPOS>MOLECULE
molecule
   16    15     1     0     0
SMALL
bcc


@<TRIPOS>ATOM
      1 C1           0.0000     0.0000     0.0000 c3         1 LER       0.041400
      2 O1           1.4290     0.0000     0.0000 oh         1 LER      -0.580800
      3 C2          -0.5010     0.0000     1.4210 c          1 LER       0.526100
      4 O2           0.2830     0.0000     2.3390 o          1 LER      -0.449100
      5 C3          -1.9820     0.0000     1.6980 c3         1 LER       0.059100
      6 O3          -2.2130    -0.3480     3.0640 oh         1 LER      -0.565800
      7 C4          -2.5530     1.3940     1.4240 c3         1 LER       0.144400
      8 O4          -3.9740     1.3650     1.5730 oh         1 LER      -0.603800
      9 H1          -0.3610     0.8850    -0.5100 h1         1 LER       0.040200
     10 H2          -0.3610    -0.8850    -0.5100 h1         1 LER       0.040200
     11 H3           1.7430    -0.0250    -0.8890 ho         1 LER       0.405000
     12 H4          -2.4700    -0.7220     1.0540 h1         1 LER       0.054700
     13 H5          -2.5280    -1.2350     3.1140 ho         1 LER       0.409000
     14 H6          -2.3030     1.6940     0.4140 h1         1 LER       0.035200
     15 H7          -2.1310     2.1020     2.1260 h1         1 LER       0.035200
     16 H8          -4.3260     2.2210     1.3940 ho         1 LER       0.408000
@<TRIPOS>BOND
     1     4     3 2
     2     6     5 1
     3     2     1 1
     4     3     5 1
     5     3     1 1
     6     5     7 1
     7     7     8 1
     8     1     9 1
     9     1    10 1
    10     2    11 1
    11     5    12 1
    12     6    13 1
    13     7    14 1
    14     7    15 1
    15     8    16 1
@<TRIPOS>SUBSTRUCTURE
     1 LER         1 TEMP              0 ****  ****    0 ROOT
