@<TRIPOS>MOLECULE
LEV
   50    53     1     0     0
SMALL
bcc


@<TRIPOS>ATOM
      1 C1           0.0000     0.0000     0.0000 c3         1 LEV       0.239700
      2 O2           1.4280     0.0000     0.0000 os         1 LEV      -0.286900
      3 C3           2.0430     0.0000     1.2090 ca         1 LEV       0.234100
      4 C4           1.2930    -0.0000     2.3490 ca         1 LEV      -0.262300
      5 C5           1.9200    -0.0000     3.6050 ca         1 LEV       0.497600
      6 N6           1.1960     0.0000     4.7300 nb         1 LEV      -0.621000
      7 C7           1.7610     0.0000     5.9150 ca         1 LEV       0.526200
      8 C8           3.1410     0.0000     6.0690 ca         1 LEV      -0.336300
      9 C9           3.9560     0.0000     4.9510 ca         1 LEV       0.213100
     10 C10          3.3360    -0.0010     3.6780 ca         1 LEV      -0.218300
     11 C11          4.0970    -0.0020     2.5040 ca         1 LEV       0.017000
     12 C12          3.4530    -0.0060     1.2750 ca         1 LEV      -0.270600
     13 C13          4.2470    -0.0070     0.0320 c          1 LEV       0.347700
     14 O14          3.6850    -0.0110    -1.0480 o          1 LEV      -0.417100
     15 N15          5.5930    -0.0050     0.0900 nz         1 LEV       0.198600
     16 O16          5.3060    -0.0000     5.0700 os         1 LEV      -0.220200
     17 C17          5.8370     0.1020     6.3170 ca         1 LEV       0.049100
     18 C18          5.8220    -0.9930     7.1680 ca         1 LEV      -0.104000
     19 C19          6.3620    -0.8910     8.4360 ca         1 LEV      -0.070600
     20 C20          6.9170     0.3110     8.8590 ca         1 LEV      -0.040400
     21 C21          6.9310     1.4070     8.0070 ca         1 LEV      -0.075000
     22 C22          6.3960     1.3010     6.7370 ca         1 LEV      -0.084000
     23 N23          7.4640     0.4170    10.1460 ns         1 LEV      -0.060100
     24 C24          7.3640     1.5760    10.8260 c          1 LEV       0.567100
     25 O25          6.8690     2.5520    10.2960 o          1 LEV      -0.693100
     26 N26          7.8130     1.6520    12.0960 ns         1 LEV      -0.139900
     27 C27          7.7050     2.9120    12.8360 cx         1 LEV      -0.047300
     28 C28          7.6630     2.8310    14.3630 cx         1 LEV      -0.087400
     29 C29          8.9170     3.3540    13.6580 cx         1 LEV      -0.087400
     30 Cl           6.3440    -2.2610     9.5010 cl         1 LEV       0.006600
     31 H1          -0.3610     0.8850     0.5110 h1         1 LEV       0.013367
     32 H2          -0.3610    -0.0000    -1.0210 h1         1 LEV       0.013367
     33 H3          -0.3610    -0.8850     0.5110 h1         1 LEV       0.013367
     34 H4           0.2120     0.0000     2.2840 ha         1 LEV       0.161000
     35 H5           1.1330     0.0000     6.7970 h4         1 LEV      -0.007900
     36 H6           3.5780     0.0000     7.0610 ha         1 LEV       0.156000
     37 H7           5.1790    -0.0070     2.5540 ha         1 LEV       0.090000
     38 H8           5.9040     0.8130     0.5760 hn         1 LEV       0.244133
     39 H9           5.9670    -0.0050    -0.8380 hn         1 LEV       0.244133
     40 H10          5.4360    -1.9440     6.8190 ha         1 LEV       0.127000
     41 H11          7.4120     2.3270     8.3160 ha         1 LEV       0.163000
     42 H12          6.4350     2.1460     6.0610 ha         1 LEV       0.115000
     43 H13          7.9580    -0.3570    10.5440 hn         1 LEV       0.175500
     44 H14          8.2070     0.8450    12.5360 hn         1 LEV       0.166500
     45 H15          7.1270     3.7220    12.4090 h1         1 LEV       0.101700
     46 H16          7.7430     1.8350    14.7810 hc         1 LEV       0.050700
     47 H17          7.0560     3.5820    14.8540 hc         1 LEV       0.050700
     48 H18          9.7630     2.6770    13.6450 hc         1 LEV       0.050700
     49 H19          9.0760     4.4240    13.7180 hc         1 LEV       0.050700
     50 H153         5.9070    -0.8180     0.5820 hn         1 LEV       0.244133
@<TRIPOS>BOND
     1     1     2 1   
     2     1    31 1   
     3     1    32 1   
     4     1    33 1   
     5     2     3 1   
     6     3     4 ar  
     7     3    12 ar  
     8     4     5 ar  
     9     4    34 1   
    10     5     6 ar  
    11     5    10 ar  
    12     6     7 ar  
    13     7     8 ar  
    14     7    35 1   
    15     8     9 ar  
    16     8    36 1   
    17     9    10 ar  
    18     9    16 1   
    19    10    11 ar  
    20    11    12 ar  
    21    11    37 1   
    22    12    13 1   
    23    13    14 2   
    24    13    15 1   
    25    15    38 1   
    26    15    39 1   
    27    15    50 1   
    28    16    17 1   
    29    17    18 ar  
    30    17    22 ar  
    31    18    19 ar  
    32    18    40 1   
    33    19    20 ar  
    34    19    30 1   
    35    20    21 ar  
    36    20    23 1   
    37    21    22 ar  
    38    21    41 1   
    39    22    42 1   
    40    23    24 1   
    41    23    43 1   
    42    24    25 2   
    43    24    26 1   
    44    26    27 1   
    45    26    44 1   
    46    27    28 1   
    47    27    29 1   
    48    27    45 1   
    49    28    29 1   
    50    28    46 1   
    51    28    47 1   
    52    29    48 1   
    53    29    49 1   
@<TRIPOS>SUBSTRUCTURE
     1 LEV         1 TEMP              0 ****  ****    0 ROOT
