@<TRIPOS>MOLECULE
molecule
   45    48     1     0     0
SMALL
bcc


@<TRIPOS>ATOM
      1 C18          0.0000     0.0000     0.0000 ca         1 LEW      -0.020000
      2 C17          1.4020     0.0000     0.0000 ca         1 LEW      -0.112000
      3 C16          2.0770     0.0000     1.1830 ca         1 LEW      -0.134000
      4 C15          1.3940     0.0010     2.3970 ca         1 LEW      -0.120000
      5 C14          0.0330    -0.0000     2.4350 ca         1 LEW      -0.128000
      6 C13         -0.6960     0.0010     1.2330 ca         1 LEW      -0.034000
      7 C12         -2.1020     0.0080     1.2350 ca         1 LEW      -0.111000
      8 C11         -2.7860     0.0130     0.0580 ca         1 LEW      -0.129000
      9 C10         -2.1170     0.0130    -1.1610 ca         1 LEW      -0.122000
     10 C9          -0.7340     0.0060    -1.2090 ca         1 LEW      -0.090500
     11 C8          -0.0310     0.0060    -2.5140 cc         1 LEW       0.339800
     12 C7          -0.6010     0.0180    -3.7550 cd         1 LEW      -0.256600
     13 N3           1.3000     0.0020    -2.7130 nc         1 LEW      -0.364000
     14 N2           1.5290     0.0040    -3.9790 nd         1 LEW      -0.192800
     15 N1           0.4230     0.0130    -4.6370 na         1 LEW       0.139400
     16 C1           0.2960     0.0200    -6.0960 c3         1 LEW       0.282800
     17 O5           0.8110    -1.2030    -6.6260 os         1 LEW      -0.397600
     18 C5           0.7110    -1.3110    -8.0470 c3         1 LEW       0.153100
     19 C6           1.2650    -2.6650    -8.4960 c3         1 LEW       0.153400
     20 O6           0.4410    -3.7110    -7.9780 oh         1 LEW      -0.599800
     21 C4           1.5190    -0.1870    -8.7020 c3         1 LEW       0.099100
     22 O4           1.3750    -0.2600   -10.1210 oh         1 LEW      -0.600800
     23 C3           0.9980     1.1640    -8.2010 c3         1 LEW       0.106100
     24 O3           1.7940     2.2160    -8.7480 oh         1 LEW      -0.600800
     25 C2           1.0870     1.1980    -6.6720 c3         1 LEW       0.097100
     26 O2           0.5360     2.4250    -6.1890 oh         1 LEW      -0.598800
     27 H17          1.9460    -0.0000    -0.9370 ha         1 LEW       0.184000
     28 H16          3.1600     0.0010     1.1800 ha         1 LEW       0.129000
     29 H15          1.9540     0.0010     3.3250 ha         1 LEW       0.125000
     30 H14         -0.4850     0.0000     3.3860 ha         1 LEW       0.130000
     31 H12         -2.6420     0.0080     2.1750 ha         1 LEW       0.131000
     32 H11         -3.8690     0.0180     0.0710 ha         1 LEW       0.128000
     33 H10         -2.6850     0.0170    -2.0840 ha         1 LEW       0.124000
     34 H7          -1.6600     0.0250    -3.9850 h4         1 LEW       0.187000
     35 H1          -0.7470     0.1190    -6.3720 h2         1 LEW       0.077700
     36 H5          -0.3280    -1.2240    -8.3410 h1         1 LEW       0.064700
     37 H6           2.2750    -2.7830    -8.1240 h1         1 LEW       0.041700
     38 H6A          1.2700    -2.7120    -9.5780 h1         1 LEW       0.041700
     39 HO6          0.6870    -4.5310    -8.3740 ho         1 LEW       0.407000
     40 H4           2.5640    -0.2920    -8.4330 h1         1 LEW       0.064700
     41 HO4          2.2090    -0.0990   -10.5310 ho         1 LEW       0.418000
     42 H3          -0.0340     1.2880    -8.5050 h1         1 LEW       0.059700
     43 HO3          1.2590     2.7580    -9.3040 ho         1 LEW       0.418000
     44 H2           2.1240     1.1170    -6.3690 h1         1 LEW       0.083700
     45 HO2          1.2290     3.0530    -6.0650 ho         1 LEW       0.426000
@<TRIPOS>BOND
     1     2     1 ar
     2     1     6 ar
     3     1    10 ar
     4     3     2 ar
     5     2    27 1
     6     3     4 ar
     7     3    28 1
     8     4     5 ar
     9     4    29 1
    10     5     6 ar
    11     5    30 1
    12     6     7 ar
    13     7     8 ar
    14     7    31 1
    15     9     8 ar
    16     8    32 1
    17    10     9 ar
    18     9    33 1
    19    11    10 1
    20    12    11 2
    21    11    13 1
    22    15    12 1
    23    12    34 1
    24    14    13 2
    25    15    14 1
    26    16    15 1
    27    25    16 1
    28    16    17 1
    29    16    35 1
    30    18    17 1
    31    21    18 1
    32    18    19 1
    33    18    36 1
    34    20    19 1
    35    19    37 1
    36    19    38 1
    37    20    39 1
    38    22    21 1
    39    23    21 1
    40    21    40 1
    41    22    41 1
    42    24    23 1
    43    23    25 1
    44    23    42 1
    45    24    43 1
    46    26    25 1
    47    25    44 1
    48    26    45 1
@<TRIPOS>SUBSTRUCTURE
     1 LEW         1 TEMP              0 ****  ****    0 ROOT
