@<TRIPOS>MOLECULE
LEW
   45    48     1     0     0
SMALL
bcc


@<TRIPOS>ATOM
      1 C18        -0.0750   -0.1430   -0.2900 ca        1 LEW     -0.012000
      2 C17         1.2500   -0.6090   -0.5170 ca        1 LEW     -0.108000
      3 C16         1.9520   -1.2420    0.4790 ca        1 LEW     -0.127000
      4 C15         1.3670   -1.4460    1.7520 ca        1 LEW     -0.125000
      5 C14         0.0890   -1.0120    1.9990 ca        1 LEW     -0.120000
      6 C13        -0.6620   -0.3530    0.9860 ca        1 LEW     -0.040000
      7 C12        -1.9870    0.0950    1.2330 ca        1 LEW     -0.107000
      8 C11        -2.7030    0.7280    0.2470 ca        1 LEW     -0.134000
      9 C10        -2.1270    0.9440   -1.0250 ca        1 LEW     -0.108000
     10 C9         -0.8410    0.5200   -1.2970 ca        1 LEW     -0.100500
     11 C8         -0.2840    0.7530   -2.6180 cc        1 LEW      0.309800
     12 C7         -0.6710    0.1830   -3.8440 cd        1 LEW     -0.186600
     13 N3          0.7570    1.6800   -2.9150 nc        1 LEW     -0.326000
     14 N2          0.9940    1.6750   -4.1570 nd        1 LEW     -0.176800
     15 N1          0.1480    0.8200   -4.7930 na        1 LEW      0.032400
     16 C1          0.2340    0.4350   -6.1910 c3        1 LEW      0.240800
     17 O5          0.9980   -0.7830   -6.2480 os        1 LEW     -0.436600
     18 C5          1.0010   -1.3640   -7.5550 c3        1 LEW      0.105100
     19 C6          1.8070   -2.6610   -7.4250 c3        1 LEW      0.141400
     20 O6          1.1430   -3.5910   -6.6010 oh        1 LEW     -0.591800
     21 C4          1.6580   -0.4100   -8.5620 c3        1 LEW      0.121100
     22 O4          1.5350   -1.0080   -9.8400 oh        1 LEW     -0.592800
     23 C3          0.9370    0.9490   -8.5350 c3        1 LEW      0.105100
     24 O3          1.6690    1.8100   -9.3870 oh        1 LEW     -0.601800
     25 C2          0.9150    1.4960   -7.0980 c3        1 LEW      0.091100
     26 O2          0.1500    2.6840   -7.1440 oh        1 LEW     -0.600800
     27 H17         1.7090   -0.4520   -1.5050 ha        1 LEW      0.143000
     28 H16         2.9780   -1.5970    0.3000 ha        1 LEW      0.134000
     29 H15         1.9500   -1.9530    2.5340 ha        1 LEW      0.133000
     30 H14        -0.3780   -1.1640    2.9840 ha        1 LEW      0.132000
     31 H12        -2.4250   -0.0750    2.2280 ha        1 LEW      0.134000
     32 H11        -3.7290    1.0790    0.4330 ha        1 LEW      0.135000
     33 H10        -2.7160    1.4630   -1.7950 ha        1 LEW      0.135000
     34 H7         -1.4130   -0.5680   -4.1050 h4        1 LEW      0.199000
     35 H1         -0.8210    0.2370   -6.5500 h2        1 LEW      0.076700
     36 H5         -0.0540   -1.5940   -7.8690 h1        1 LEW      0.071700
     37 H6          1.8760   -3.1460   -8.4360 h1        1 LEW      0.068200
     38 H6A         2.8310   -2.4370   -7.0260 h1        1 LEW      0.068200
     39 HO6         1.0940   -3.2030   -5.7170 ho        1 LEW      0.410000
     40 H4          2.7450   -0.2610   -8.3110 h1        1 LEW      0.067700
     41 HO4         1.8800   -0.3650  -10.4760 ho        1 LEW      0.428000
     42 H3         -0.1150    0.8410   -8.9210 h1        1 LEW      0.064700
     43 HO3         1.2530    2.6810   -9.3240 ho        1 LEW      0.429000
     44 H2          1.9650    1.6990   -6.7500 h1        1 LEW      0.088700
     45 HO2         0.3500    3.1900   -6.3460 ho        1 LEW      0.431000
@<TRIPOS>BOND
     1    1    2 ar  
     2    1    6 ar  
     3    1   10 ar  
     4    2    3 ar  
     5    2   27 1   
     6    3    4 ar  
     7    3   28 1   
     8    4    5 ar  
     9    4   29 1   
    10    5    6 ar  
    11    5   30 1   
    12    6    7 ar  
    13    7    8 ar  
    14    7   31 1   
    15    8    9 ar  
    16    8   32 1   
    17    9   10 ar  
    18    9   33 1   
    19   10   11 1   
    20   11   12 2   
    21   11   13 1   
    22   12   15 1   
    23   12   34 1   
    24   13   14 2   
    25   14   15 1   
    26   15   16 1   
    27   16   17 1   
    28   16   25 1   
    29   16   35 1   
    30   17   18 1   
    31   18   19 1   
    32   18   21 1   
    33   18   36 1   
    34   19   20 1   
    35   19   37 1   
    36   19   38 1   
    37   20   39 1   
    38   21   22 1   
    39   21   23 1   
    40   21   40 1   
    41   22   41 1   
    42   23   24 1   
    43   23   25 1   
    44   23   42 1   
    45   24   43 1   
    46   25   26 1   
    47   25   44 1   
    48   26   45 1   
@<TRIPOS>SUBSTRUCTURE
     1 LEW         1 TEMP              0 ****  ****    0 ROOT
