@<TRIPOS>MOLECULE
LF0
   56    59     1     0     0
SMALL
bcc


@<TRIPOS>ATOM
      1 C1          0.0290   -0.0240   -0.0640 cp        1 LF0     -0.013000
      2 C2          1.4130   -0.0830   -0.0550 ca        1 LF0     -0.116600
      3 C3          2.0830   -0.2040    1.2290 ca        1 LF0      0.483600
      4 N1          1.4360   -0.2150    2.3900 nb        1 LF0     -0.706000
      5 C5          0.0640   -0.0910    2.3900 ca        1 LF0      0.398600
      6 C6         -0.6860    0.0060    1.1810 ca        1 LF0     -0.140300
      7 C7         -0.7610   -0.0110   -1.3020 cp        1 LF0     -0.067000
      8 C8         -0.6660    1.0540   -2.2130 ca        1 LF0     -0.073000
      9 C9         -1.4430    1.0640   -3.3660 ca        1 LF0     -0.158000
     10 C10        -2.3180   -0.0040   -3.6190 ca        1 LF0      0.111100
     11 C11        -2.4170   -1.0850   -2.7290 ca        1 LF0     -0.168300
     12 C12        -1.6310   -1.0740   -1.5730 ca        1 LF0     -0.094000
     13 C13        -2.0960    0.1450    1.2550 ca        1 LF0     -0.103000
     14 C14        -2.7410    0.1700    2.4680 ca        1 LF0     -0.158000
     15 C15        -2.0040    0.0610    3.6680 ca        1 LF0     -0.144000
     16 C16        -0.6370   -0.0650    3.6390 ca        1 LF0     -0.173300
     17 C17         3.5720   -0.3480    1.2520 c3        1 LF0     -0.177400
     18 C18         2.1980    0.0020   -1.3310 c3        1 LF0      0.044400
     19 C19         2.8370    1.4220   -1.5160 c         1 LF0      0.909600
     20 O20         2.1040    2.2890   -2.0700 o         1 LF0     -0.820800
     21 O21         4.0250    1.6250   -1.1520 o         1 LF0     -0.820800
     22 O22         3.1840   -1.0390   -1.3080 os        1 LF0     -0.414600
     23 C23         3.6140   -1.5110   -2.5910 c3        1 LF0      0.164800
     24 C24         4.0080   -0.3770   -3.5240 c3        1 LF0     -0.110767
     25 C25         4.8380   -2.3710   -2.2730 c3        1 LF0     -0.110767
     26 C26         2.5330   -2.3790   -3.2280 c3        1 LF0     -0.110767
     27 O27        -3.0860    0.1010   -4.7700 os        1 LF0     -0.332900
     28 C4         -3.6810   -1.1220   -5.2060 c3        1 LF0      0.132400
     29 C20        -4.3450   -1.8770   -4.0720 c3        1 LF0     -0.111400
     30 C21        -3.3240   -2.2290   -3.0090 c3        1 LF0     -0.021100
     31 H1          0.0690    1.8680   -2.0280 ha        1 LF0      0.219000
     32 H2         -1.3730    1.8930   -4.0830 ha        1 LF0      0.148000
     33 H3         -1.7010   -1.9140   -0.8660 ha        1 LF0      0.131000
     34 H4         -2.6680    0.2410    0.3190 ha        1 LF0      0.137000
     35 H5         -3.8330    0.2820    2.5180 ha        1 LF0      0.116000
     36 H6         -2.5390    0.0830    4.6280 ha        1 LF0      0.115000
     37 H7         -0.0600   -0.1420    4.5720 ha        1 LF0      0.135000
     38 H8          3.9970   -0.2030    2.2740 hc        1 LF0      0.073367
     39 H9          4.0290    0.4020    0.5480 hc        1 LF0      0.073367
     40 H10         3.8390   -1.3720    0.8880 hc        1 LF0      0.073367
     41 H11         1.5070   -0.1640   -2.2060 h1        1 LF0      0.048700
     42 H13         4.4920   -0.7880   -4.4400 hc        1 LF0      0.039256
     43 H14         3.1110    0.2200   -3.8190 hc        1 LF0      0.039256
     44 H15         4.7130    0.3120   -2.9940 hc        1 LF0      0.039256
     45 H16         5.6190   -1.7420   -1.7830 hc        1 LF0      0.039256
     46 H17         5.2470   -2.8030   -3.2160 hc        1 LF0      0.039256
     47 H18         4.5560   -3.1970   -1.5800 hc        1 LF0      0.039256
     48 H19         2.9530   -2.9200   -4.1090 hc        1 LF0      0.039256
     49 H20         1.6740   -1.7550   -3.5710 hc        1 LF0      0.039256
     50 H21         2.1570   -3.1240   -2.4880 hc        1 LF0      0.039256
     51 H22        -2.8900   -1.7540   -5.6910 h1        1 LF0      0.046200
     52 H23        -4.4280   -0.7890   -5.9740 h1        1 LF0      0.046200
     53 H24        -5.1510   -1.2390   -3.6240 hc        1 LF0      0.046700
     54 H25        -4.8230   -2.8070   -4.4720 hc        1 LF0      0.046700
     55 H26        -3.8510   -2.5390   -2.0680 hc        1 LF0      0.045200
     56 H27        -2.7110   -3.1070   -3.3510 hc        1 LF0      0.045200
@<TRIPOS>BOND
     1    1    2 ar  
     2    1    6 ar  
     3    1    7 1   
     4    2    3 ar  
     5    2   18 1   
     6    3    4 ar  
     7    3   17 1   
     8    4    5 ar  
     9    5    6 ar  
    10    5   16 ar  
    11    6   13 ar  
    12    7    8 ar  
    13    7   12 ar  
    14    8    9 ar  
    15    8   31 1   
    16    9   10 ar  
    17    9   32 1   
    18   10   11 ar  
    19   10   27 1   
    20   11   12 ar  
    21   11   30 1   
    22   12   33 1   
    23   13   14 ar  
    24   13   34 1   
    25   14   15 ar  
    26   14   35 1   
    27   15   16 ar  
    28   15   36 1   
    29   16   37 1   
    30   17   38 1   
    31   17   39 1   
    32   17   40 1   
    33   18   19 1   
    34   18   22 1   
    35   18   41 1   
    36   19   20 1   
    37   19   21 1   
    38   22   23 1   
    39   23   24 1   
    40   23   25 1   
    41   23   26 1   
    42   24   42 1   
    43   24   43 1   
    44   24   44 1   
    45   25   45 1   
    46   25   46 1   
    47   25   47 1   
    48   26   48 1   
    49   26   49 1   
    50   26   50 1   
    51   27   28 1   
    52   28   29 1   
    53   28   51 1   
    54   28   52 1   
    55   29   30 1   
    56   29   53 1   
    57   29   54 1   
    58   30   55 1   
    59   30   56 1   
@<TRIPOS>SUBSTRUCTURE
     1 LF0         1 TEMP              0 ****  ****    0 ROOT
