@<TRIPOS>MOLECULE
molecule
   56    59     1     0     0
SMALL
bcc


@<TRIPOS>ATOM
      1 C1           0.0000     0.0000     0.0000 cp         1 LF0       0.002000
      2 C2           1.3890     0.0000     0.0000 ca         1 LF0      -0.125600
      3 C3           2.0760     0.0000     1.2080 ca         1 LF0       0.486600
      4 N1           1.4510    -0.0010     2.3610 nb         1 LF0      -0.719000
      5 C5           0.1170    -0.0010     2.4380 ca         1 LF0       0.421600
      6 C6          -0.6610     0.0050     1.2540 ca         1 LF0      -0.149300
      7 C7          -0.7640    -0.0000    -1.2680 cp         1 LF0      -0.064000
      8 C8          -0.6860     1.0910    -2.1330 ca         1 LF0      -0.051000
      9 C9          -1.4010     1.0840    -3.3090 ca         1 LF0      -0.164000
     10 C10         -2.2030    -0.0060    -3.6410 ca         1 LF0       0.133100
     11 C11         -2.2810    -1.0920    -2.7840 ca         1 LF0      -0.193300
     12 C12         -1.5620    -1.0930    -1.6030 ca         1 LF0      -0.089000
     13 C13         -2.0600     0.0060     1.3420 ca         1 LF0      -0.100000
     14 C14         -2.6580     0.0000     2.5660 ca         1 LF0      -0.158000
     15 C15         -1.8970    -0.0060     3.7330 ca         1 LF0      -0.140000
     16 C16         -0.5370    -0.0010     3.6830 ca         1 LF0      -0.171300
     17 C17          3.5830     0.0000     1.1920 c3         1 LF0      -0.155400
     18 C18          2.1470    -0.0000    -1.3030 c3         1 LF0       0.065400
     19 C19          2.8000     1.3440    -1.5040 c          1 LF0       0.879600
     20 O20          2.0440     2.4400    -1.6670 o          1 LF0      -0.831300
     21 O21          4.0050     1.4330    -1.5190 o          1 LF0      -0.831300
     22 O22          3.1500    -1.0180    -1.2710 os         1 LF0      -0.410600
     23 C23          3.4550    -1.5740    -2.5510 c3         1 LF0       0.155800
     24 C24          3.9610    -0.4700    -3.4810 c3         1 LF0      -0.105100
     25 C25          4.5340    -2.6470    -2.3970 c3         1 LF0      -0.105100
     26 C26          2.1930    -2.2020    -3.1470 c3         1 LF0      -0.105100
     27 O27         -2.8950     0.0340    -4.8090 os         1 LF0      -0.335900
     28 C4          -3.4050    -1.1970    -5.3250 c3         1 LF0       0.143400
     29 C20         -4.1490    -1.9230    -4.1960 c3         1 LF0      -0.124400
     30 C21         -3.1330    -2.2920    -3.1120 c3         1 LF0      -0.024100
     31 H1          -0.1290     1.9730    -1.8430 ha         1 LF0       0.209000
     32 H2          -1.3350     1.9290    -3.9840 ha         1 LF0       0.145000
     33 H3          -1.6670    -2.0040    -1.0270 ha         1 LF0       0.128000
     34 H4          -2.6620     0.0100     0.4420 ha         1 LF0       0.135000
     35 H5          -3.7390    -0.0040     2.6330 ha         1 LF0       0.112000
     36 H6          -2.3950    -0.0100     4.6950 ha         1 LF0       0.113000
     37 H7           0.0400    -0.0050     4.6000 ha         1 LF0       0.134000
     38 H8           3.9380     0.8630     0.6410 hc         1 LF0       0.067367
     39 H9           3.9550     0.0440     2.2090 hc         1 LF0       0.067367
     40 H10          3.9400    -0.9050     0.7160 hc         1 LF0       0.067367
     41 H11          1.4620    -0.1940    -2.1190 h1         1 LF0       0.053700
     42 H13          4.8010     0.0350    -3.0180 hc         1 LF0       0.037922
     43 H14          4.2770    -0.9050    -4.4210 hc         1 LF0       0.037922
     44 H15          3.1660     0.2430    -3.6620 hc         1 LF0       0.037922
     45 H16          4.1710    -3.4340    -1.7480 hc         1 LF0       0.037922
     46 H17          5.4240    -2.2050    -1.9650 hc         1 LF0       0.037922
     47 H18          4.7730    -3.0620    -3.3690 hc         1 LF0       0.037922
     48 H19          1.5950    -2.6340    -2.3530 hc         1 LF0       0.037922
     49 H20          1.6170    -1.4410    -3.6590 hc         1 LF0       0.037922
     50 H21          2.4730    -2.9770    -3.8500 hc         1 LF0       0.037922
     51 H22         -4.0900    -0.9930    -6.1390 h1         1 LF0       0.047700
     52 H23         -2.5850    -1.8120    -5.6750 h1         1 LF0       0.047700
     53 H24         -4.8890    -1.2540    -3.7740 hc         1 LF0       0.049700
     54 H25         -4.5890    -2.8300    -4.5900 hc         1 LF0       0.049700
     55 H26         -3.6690    -2.5920    -2.2200 hc         1 LF0       0.047700
     56 H27         -2.4930    -3.0810    -3.4890 hc         1 LF0       0.047700
@<TRIPOS>BOND
     1    25    23 1
     2    26    23 1
     3    23    24 1
     4    23    22 1
     5    15    16 ar
     6    15    14 ar
     7     8     9 ar
     8     8     7 ar
     9    16     5 ar
    10     9    10 ar
    11    14    13 ar
    12     5     4 ar
    13     5     6 ar
    14    22    18 1
    15    13     6 ar
    16     4     3 ar
    17     6     1 ar
    18     3    17 1
    19     3     2 ar
    20     1     2 ar
    21     1     7 1
    22     2    18 1
    23     7    12 ar
    24    18    19 1
    25    10    27 1
    26    10    11 ar
    27    27    28 1
    28    12    11 ar
    29    11    30 1
    30    19    21 1
    31    19    20 1
    32    28    29 1
    33    29    30 1
    34     8    31 1
    35     9    32 1
    36    12    33 1
    37    13    34 1
    38    14    35 1
    39    15    36 1
    40    16    37 1
    41    17    38 1
    42    17    39 1
    43    17    40 1
    44    18    41 1
    45    24    42 1
    46    24    43 1
    47    24    44 1
    48    25    45 1
    49    25    46 1
    50    25    47 1
    51    26    48 1
    52    26    49 1
    53    26    50 1
    54    28    51 1
    55    28    52 1
    56    29    53 1
    57    29    54 1
    58    30    55 1
    59    30    56 1
@<TRIPOS>SUBSTRUCTURE
     1 LF0         1 TEMP              0 ****  ****    0 ROOT
