@<TRIPOS>MOLECULE
LF1
   57    60     1     0     0
SMALL
bcc


@<TRIPOS>ATOM
      1 C01          0.0000     0.0000     0.0000 c3         1 LF1       0.232700
      2 O05          1.4290     0.0000     0.0000 os         1 LF1      -0.258900
      3 C06          2.0450     0.0000     1.2080 ca         1 LF1       0.218100
      4 C07          1.2930    -0.0010     2.3740 ca         1 LF1      -0.229000
      5 C09          1.9210    -0.0010     3.6030 ca         1 LF1      -0.028000
      6 C11          3.3040    -0.0010     3.6840 ca         1 LF1      -0.158000
      7 C13          4.0670     0.0000     2.5360 ca         1 LF1      -0.043000
      8 C15          3.4440    -0.0060     1.2860 ca         1 LF1      -0.206600
      9 C16          4.2540    -0.0110     0.0530 c          1 LF1       0.588700
     10 O17          3.7090    -0.0110    -1.0340 o          1 LF1      -0.631100
     11 N18          5.6000    -0.0170     0.1310 ns         1 LF1      -0.027100
     12 C20          6.3700    -0.1180    -1.0370 ca         1 LF1      -0.062400
     13 C21          5.9310     0.4770    -2.2080 ca         1 LF1      -0.084000
     14 C23          6.6930     0.3770    -3.3630 ca         1 LF1      -0.131400
     15 N24          6.5250     0.8530    -4.6630 n          1 LF1       0.052000
     16 C25          5.3910     1.6460    -5.1460 c3         1 LF1       0.083300
     17 C29          7.5810     0.4610    -5.3980 c          1 LF1       0.581500
     18 O30          7.7460     0.7110    -6.5780 o          1 LF1      -0.724500
     19 N31          8.4300    -0.2500    -4.6320 n          1 LF1       0.045000
     20 C32          9.6930    -0.8460    -5.0750 c3         1 LF1       0.086300
     21 C36          7.9020    -0.3230    -3.3430 ca         1 LF1      -0.156400
     22 C37          8.3400    -0.9180    -2.1690 ca         1 LF1      -0.104000
     23 C39          7.5810    -0.8120    -1.0160 ca         1 LF1      -0.016400
     24 N40          8.0260    -1.4070     0.1720 nh         1 LF1      -0.406000
     25 C41          9.2760    -0.7900     0.6340 c3         1 LF1       0.146800
     26 C44          9.6850    -1.4120     1.9710 c3         1 LF1       0.145800
     27 N47          9.8480    -2.8630     1.8040 n7         1 LF1      -0.584200
     28 C49          8.5970    -3.4810     1.3420 c3         1 LF1       0.145800
     29 C52          8.1880    -2.8590     0.0050 c3         1 LF1       0.124500
     30 C54          6.8640    -3.4700    -0.4590 c3         1 LF1      -0.005100
     31 H011        -0.3610    -0.8850     0.5100 h1         1 LF1      -0.001300
     32 H012        -0.3610     0.0010    -1.0210 h1         1 LF1      -0.001300
     33 H013        -0.3610     0.8840     0.5120 h1         1 LF1      -0.001300
     34 H07          0.2110    -0.0010     2.3200 ha         1 LF1       0.125000
     35 H09          1.3290    -0.0020     4.5110 ha         1 LF1       0.100000
     36 H11          3.7880     0.0010     4.6530 ha         1 LF1       0.108000
     37 H13          5.1490    -0.0020     2.6040 ha         1 LF1       0.104000
     38 H18          6.0500     0.1080     1.0170 hn         1 LF1       0.181500
     39 H21          5.0350     1.0860    -2.2030 ha         1 LF1       0.150000
     40 H251         5.2860     2.5340    -4.5350 h1         1 LF1       0.021367
     41 H252         4.4850     1.0550    -5.0840 h1         1 LF1       0.021367
     42 H253         5.5640     1.9340    -6.1760 h1         1 LF1       0.021367
     43 H321         9.8500    -0.6190    -6.1230 h1         1 LF1       0.018367
     44 H322        10.5090    -0.4380    -4.4910 h1         1 LF1       0.018367
     45 H323         9.6520    -1.9200    -4.9400 h1         1 LF1       0.018367
     46 H37          9.2800    -1.4570    -2.1530 ha         1 LF1       0.118000
     47 H411         9.1260     0.2750     0.7630 h1         1 LF1       0.018200
     48 H412        10.0560    -0.9650    -0.0980 h1         1 LF1       0.018200
     49 H52          8.9580    -3.0520    -0.7320 h1         1 LF1       0.024700
     50 H441         8.9160    -1.2180     2.7090 h1         1 LF1       0.009700
     51 H442        10.6240    -0.9800     2.2970 h1         1 LF1       0.009700
     52 H47         10.1190    -3.2710     2.6770 hn         1 LF1       0.254800
     53 H491         7.8170    -3.3070     2.0740 h1         1 LF1       0.013700
     54 H492         8.7470    -4.5460     1.2130 h1         1 LF1       0.013700
     55 H541         6.0770    -3.1940     0.2320 hc         1 LF1       0.013033
     56 H542         6.6230    -3.1010    -1.4480 hc         1 LF1       0.013033
     57 H543         6.9560    -4.5490    -0.4890 hc         1 LF1       0.013033
@<TRIPOS>BOND
     1     1     2 1   
     2     1    31 1   
     3     1    32 1   
     4     1    33 1   
     5     2     3 1   
     6     3     4 ar  
     7     3     8 ar  
     8     4     5 ar  
     9     4    34 1   
    10     5     6 ar  
    11     5    35 1   
    12     6     7 ar  
    13     6    36 1   
    14     7     8 ar  
    15     7    37 1   
    16     8     9 1   
    17     9    10 2   
    18     9    11 1   
    19    11    12 1   
    20    11    38 1   
    21    12    13 ar  
    22    12    23 ar  
    23    13    14 ar  
    24    13    39 1   
    25    14    15 1   
    26    14    21 ar  
    27    15    16 1   
    28    15    17 1   
    29    16    40 1   
    30    16    41 1   
    31    16    42 1   
    32    17    18 2   
    33    17    19 1   
    34    19    20 1   
    35    19    21 1   
    36    20    43 1   
    37    20    44 1   
    38    20    45 1   
    39    21    22 ar  
    40    22    23 ar  
    41    22    46 1   
    42    23    24 1   
    43    24    25 1   
    44    24    29 1   
    45    25    26 1   
    46    25    47 1   
    47    25    48 1   
    48    26    27 1   
    49    26    50 1   
    50    26    51 1   
    51    27    28 1   
    52    27    52 1   
    53    28    29 1   
    54    28    53 1   
    55    28    54 1   
    56    29    30 1   
    57    29    49 1   
    58    30    55 1   
    59    30    56 1   
    60    30    57 1   
@<TRIPOS>SUBSTRUCTURE
     1 LF1         1 TEMP              0 ****  ****    0 ROOT
