@<TRIPOS>MOLECULE
molecule
   57    60     1     0     0
SMALL
bcc


@<TRIPOS>ATOM
      1 C01          0.0000     0.0000     0.0000 c3         1 LF1       0.121700
      2 O05          1.4290     0.0000     0.0000 os         1 LF1      -0.283900
      3 C06          2.0450     0.0000     1.2080 ca         1 LF1       0.200100
      4 C07          1.2930    -0.0010     2.3740 ca         1 LF1      -0.235000
      5 C09          1.9210    -0.0010     3.6030 ca         1 LF1      -0.063000
      6 C11          3.3040    -0.0010     3.6840 ca         1 LF1      -0.180000
      7 C13          4.0670     0.0000     2.5360 ca         1 LF1      -0.067000
      8 C15          3.4440    -0.0060     1.2860 ca         1 LF1      -0.184600
      9 C16          4.2540    -0.0110     0.0530 c          1 LF1       0.675700
     10 O17          3.7090    -0.0110    -1.0340 o          1 LF1      -0.582100
     11 N18          5.6000    -0.0170     0.1310 ns         1 LF1      -0.464100
     12 C20          6.3700    -0.1180    -1.0370 ca         1 LF1       0.083600
     13 C21          5.9310     0.4770    -2.2080 ca         1 LF1      -0.123000
     14 C23          6.6930     0.3770    -3.3630 ca         1 LF1       0.010600
     15 N24          6.5250     0.8530    -4.6630 n          1 LF1      -0.356000
     16 C25          5.3910     1.6460    -5.1460 c3         1 LF1       0.117300
     17 C29          7.5810     0.4610    -5.3980 c          1 LF1       0.801500
     18 O30          7.7460     0.7110    -6.5780 o          1 LF1      -0.669500
     19 N31          8.4300    -0.2500    -4.6320 n          1 LF1      -0.361000
     20 C32          9.6930    -0.8460    -5.0750 c3         1 LF1       0.118300
     21 C36          7.9020    -0.3230    -3.3430 ca         1 LF1      -0.014400
     22 C37          8.3400    -0.9180    -2.1690 ca         1 LF1      -0.145000
     23 C39          7.5810    -0.8120    -1.0160 ca         1 LF1       0.053600
     24 N40          8.0260    -1.4070     0.1720 nh         1 LF1      -0.619000
     25 C41          9.2760    -0.7900     0.6340 c3         1 LF1       0.166800
     26 C44          9.6850    -1.4120     1.9710 c3         1 LF1       0.156800
     27 N47          9.8480    -2.8630     1.8040 n7         1 LF1      -0.822200
     28 C49          8.5970    -3.4810     1.3420 c3         1 LF1       0.160800
     29 C52          8.1880    -2.8590     0.0050 c3         1 LF1       0.177500
     30 C54          6.8640    -3.4700    -0.4590 c3         1 LF1      -0.092100
     31 H011        -0.3610    -0.8850     0.5100 h1         1 LF1       0.043367
     32 H012        -0.3610     0.0010    -1.0210 h1         1 LF1       0.043367
     33 H013        -0.3610     0.8840     0.5120 h1         1 LF1       0.043367
     34 H07          0.2110    -0.0010     2.3200 ha         1 LF1       0.142000
     35 H09          1.3290    -0.0020     4.5110 ha         1 LF1       0.133000
     36 H11          3.7880     0.0010     4.6530 ha         1 LF1       0.134000
     37 H13          5.1490    -0.0020     2.6040 ha         1 LF1       0.133000
     38 H18          6.0500     0.1080     1.0170 hn         1 LF1       0.334500
     39 H21          5.0350     1.0860    -2.2030 ha         1 LF1       0.172000
     40 H251         5.2860     2.5340    -4.5350 h1         1 LF1       0.054367
     41 H252         4.4850     1.0550    -5.0840 h1         1 LF1       0.054367
     42 H253         5.5640     1.9340    -6.1760 h1         1 LF1       0.054367
     43 H321         9.8500    -0.6190    -6.1230 h1         1 LF1       0.051700
     44 H322        10.5090    -0.4380    -4.4910 h1         1 LF1       0.051700
     45 H323         9.6520    -1.9200    -4.9400 h1         1 LF1       0.051700
     46 H37          9.2800    -1.4570    -2.1530 ha         1 LF1       0.141000
     47 H411         9.1260     0.2750     0.7630 h1         1 LF1       0.045200
     48 H412        10.0560    -0.9650    -0.0980 h1         1 LF1       0.045200
     49 H52          8.9580    -3.0520    -0.7320 h1         1 LF1       0.040700
     50 H441         8.9160    -1.2180     2.7090 h1         1 LF1       0.037200
     51 H442        10.6240    -0.9800     2.2970 h1         1 LF1       0.037200
     52 H47         10.1190    -3.2710     2.6770 hn         1 LF1       0.354800
     53 H491         7.8170    -3.3070     2.0740 h1         1 LF1       0.040700
     54 H492         8.7470    -4.5460     1.2130 h1         1 LF1       0.040700
     55 H541         6.0770    -3.1940     0.2320 hc         1 LF1       0.045367
     56 H542         6.6230    -3.1010    -1.4480 hc         1 LF1       0.045367
     57 H543         6.9560    -4.5490    -0.4890 hc         1 LF1       0.045367
@<TRIPOS>BOND
     1     1     2 1
     2     2     3 1
     3     3     4 ar
     4     3     8 ar
     5     4     5 ar
     6     5     6 ar
     7     6     7 ar
     8     7     8 ar
     9     8     9 1
    10     9    10 2
    11     9    11 1
    12    11    12 1
    13    12    13 ar
    14    12    23 ar
    15    13    14 ar
    16    14    15 1
    17    14    21 ar
    18    15    16 1
    19    15    17 1
    20    17    18 2
    21    17    19 1
    22    19    20 1
    23    19    21 1
    24    21    22 ar
    25    22    23 ar
    26    23    24 1
    27    24    25 1
    28    24    29 1
    29    25    26 1
    30    26    27 1
    31    27    28 1
    32    28    29 1
    33    29    30 1
    34     1    31 1
    35     1    32 1
    36     1    33 1
    37     4    34 1
    38     5    35 1
    39     6    36 1
    40     7    37 1
    41    11    38 1
    42    13    39 1
    43    16    40 1
    44    16    41 1
    45    16    42 1
    46    20    43 1
    47    20    44 1
    48    20    45 1
    49    22    46 1
    50    25    47 1
    51    25    48 1
    52    29    49 1
    53    26    50 1
    54    26    51 1
    55    27    52 1
    56    28    53 1
    57    28    54 1
    58    30    55 1
    59    30    56 1
    60    30    57 1
@<TRIPOS>SUBSTRUCTURE
     1 LF1         1 TEMP              0 ****  ****    0 ROOT
