@<TRIPOS>MOLECULE
LF2
   48    50     1     0     0
SMALL
bcc


@<TRIPOS>ATOM
      1 C1         -0.0310   -0.0220   -0.0810 ca        1 LF2     -0.043900
      2 C2          1.3450   -0.0010   -0.0590 ca        1 LF2     -0.071000
      3 C3          2.0520   -0.0850    1.1670 ca        1 LF2     -0.144300
      4 C4          1.3200   -0.1730    2.3880 ca        1 LF2      0.409600
      5 C5         -0.1110   -0.1920    2.3290 ca        1 LF2     -0.170300
      6 C6         -0.7650   -0.1200    1.1260 ca        1 LF2     -0.122000
      7 C13         3.4860   -0.0680    1.2380 cp        1 LF2     -0.017000
      8 C14         4.1090   -0.0790    2.4760 ca        1 LF2     -0.111600
      9 C15         3.2740   -0.1970    3.6600 ca        1 LF2      0.492600
     10 N16         1.9460   -0.2480    3.6120 nb        1 LF2     -0.706000
     11 BR1        -0.9630    0.0830   -1.7070 br        1 LF2     -0.125100
     12 C18         5.5990    0.0580    2.5930 c3        1 LF2      0.041400
     13 C19         6.0030    1.5090    3.0340 c         1 LF2      0.909600
     14 O20         6.0590   -0.9380    3.5130 os        1 LF2     -0.415600
     15 C21         7.4170   -1.3630    3.3350 c3        1 LF2      0.164800
     16 C22         8.3820   -0.1920    3.2420 c3        1 LF2     -0.110767
     17 C23         7.7120   -2.1800    4.5950 c3        1 LF2     -0.110767
     18 C24         7.5380   -2.2590    2.1060 c3        1 LF2     -0.110767
     19 O25         6.1790    1.7640    4.2530 o         1 LF2     -0.817800
     20 O26         6.1610    2.3440    2.0990 o         1 LF2     -0.817800
     21 C27         4.2310   -0.0630   -0.0280 cp        1 LF2     -0.043000
     22 C28         5.0520    1.0170   -0.3820 ca        1 LF2     -0.104500
     23 C29         5.7280    1.0150   -1.6020 ca        1 LF2     -0.139500
     24 C30         5.5900   -0.0720   -2.4680 ca        1 LF2      0.014400
     25 C31         4.7880   -1.1630   -2.1210 ca        1 LF2     -0.139500
     26 C32         4.1120   -1.1520   -0.9050 ca        1 LF2     -0.104500
     27 C33         3.9330   -0.2890    5.0000 c3        1 LF2     -0.180400
     28 CL1         6.4130   -0.0760   -3.9640 cl        1 LF2     -0.131400
     29 H1          1.9240    0.0880   -0.9940 ha        1 LF2      0.152000
     30 H2         -0.6800   -0.2600    3.2690 ha        1 LF2      0.143000
     31 H3         -1.8650   -0.1340    1.0940 ha        1 LF2      0.133000
     32 H4          6.0720   -0.1240    1.5850 h1        1 LF2      0.048700
     33 H5          8.1960    0.5120    4.0930 hc        1 LF2      0.040033
     34 H6          9.4330   -0.5610    3.2760 hc        1 LF2      0.040033
     35 H7          8.2210    0.3760    2.2940 hc        1 LF2      0.040033
     36 H8          6.9990   -3.0340    4.6730 hc        1 LF2      0.040033
     37 H9          7.5950   -1.5320    5.4960 hc        1 LF2      0.040033
     38 H10         8.7550   -2.5710    4.5510 hc        1 LF2      0.040033
     39 H11         6.7320   -3.0300    2.1160 hc        1 LF2      0.040033
     40 H12         7.4480   -1.6600    1.1690 hc        1 LF2      0.040033
     41 H13         8.5300   -2.7680    2.1070 hc        1 LF2      0.040033
     42 H15         5.1990    1.8550    0.3350 ha        1 LF2      0.179000
     43 H16         6.3730    1.8660   -1.8660 ha        1 LF2      0.141000
     44 H17         4.6910   -2.0220   -2.8000 ha        1 LF2      0.141000
     45 H18         3.4780   -2.0080   -0.6260 ha        1 LF2      0.179000
     46 H19         4.7410    0.4910    5.0710 hc        1 LF2      0.076367
     47 H20         3.2090   -0.1520    5.8390 hc        1 LF2      0.076367
     48 H21         4.4140   -1.2950    5.0940 hc        1 LF2      0.076367
@<TRIPOS>BOND
     1    1    2 ar  
     2    1    6 ar  
     3    1   11 1   
     4    2    3 ar  
     5    2   29 1   
     6    3    4 ar  
     7    3    7 ar  
     8    4    5 ar  
     9    4   10 ar  
    10    5    6 ar  
    11    5   30 1   
    12    6   31 1   
    13    7    8 ar  
    14    7   21 1   
    15    8    9 ar  
    16    8   12 1   
    17    9   10 ar  
    18    9   27 1   
    19   12   13 1   
    20   12   14 1   
    21   12   32 1   
    22   13   19 1   
    23   13   20 1   
    24   14   15 1   
    25   15   16 1   
    26   15   17 1   
    27   15   18 1   
    28   16   33 1   
    29   16   34 1   
    30   16   35 1   
    31   17   36 1   
    32   17   37 1   
    33   17   38 1   
    34   18   39 1   
    35   18   40 1   
    36   18   41 1   
    37   21   22 ar  
    38   21   26 ar  
    39   22   23 ar  
    40   22   42 1   
    41   23   24 ar  
    42   23   43 1   
    43   24   25 ar  
    44   24   28 1   
    45   25   26 ar  
    46   25   44 1   
    47   26   45 1   
    48   27   46 1   
    49   27   47 1   
    50   27   48 1   
@<TRIPOS>SUBSTRUCTURE
     1 LF2         1 TEMP              0 ****  ****    0 ROOT
