@<TRIPOS>MOLECULE
molecule
   48    50     1     0     0
SMALL
bcc


@<TRIPOS>ATOM
      1 C1           0.0000     0.0000     0.0000 ca         1 LF2      -0.034900
      2 C2           1.3630     0.0000     0.0000 ca         1 LF2      -0.073000
      3 C3           2.0560     0.0000     1.2170 ca         1 LF2      -0.152300
      4 C4           1.3360     0.0010     2.4350 ca         1 LF2       0.428600
      5 C5          -0.0700     0.0000     2.3970 ca         1 LF2      -0.164300
      6 C6          -0.7130     0.0010     1.1980 ca         1 LF2      -0.121000
      7 C13          3.4730    -0.0000     1.2590 cp         1 LF2      -0.007000
      8 C14          4.0850    -0.0000     2.5060 ca         1 LF2      -0.113600
      9 C15          3.3030     0.0010     3.6540 ca         1 LF2       0.494600
     10 N16          1.9920     0.0000     3.6000 nb         1 LF2      -0.717000
     11 Br1         -0.9350     0.0090    -1.6430 br         1 LF2      -0.133100
     12 C18          5.5890    -0.0010     2.6130 c3         1 LF2       0.061400
     13 C19          6.0590     1.3500     3.0870 c          1 LF2       0.876600
     14 O20          5.9990    -1.0030     3.5450 os         1 LF2      -0.412600
     15 C21          7.2820    -1.5670     3.2650 c3         1 LF2       0.155800
     16 C22          8.3410    -0.4630     3.2910 c3         1 LF2      -0.106433
     17 C23          7.6170    -2.6220     4.3220 c3         1 LF2      -0.106433
     18 C24          7.2600    -2.2200     1.8820 c3         1 LF2      -0.106433
     19 O25          6.6030     1.4580     4.1610 o          1 LF2      -0.825300
     20 O26          5.8740     2.4340     2.3160 o          1 LF2      -0.825300
     21 C27          4.2750    -0.0020     0.0140 cp         1 LF2      -0.013000
     22 C28          4.2260     1.0910    -0.8520 ca         1 LF2      -0.095000
     23 C29          4.9750     1.0850    -2.0100 ca         1 LF2      -0.128500
     24 C30          5.7760    -0.0040    -2.3140 ca         1 LF2       0.027400
     25 C31          5.8290    -1.0910    -1.4580 ca         1 LF2      -0.128500
     26 C32          5.0880    -1.0930    -0.2950 ca         1 LF2      -0.095000
     27 C33          3.9800     0.0010     5.0010 c3         1 LF2      -0.157400
     28 Cl1          6.7160    -0.0050    -3.7730 cl         1 LF2      -0.139400
     29 H1           1.9080    -0.0010    -0.9370 ha         1 LF2       0.147000
     30 H2          -0.6380     0.0010     3.3190 ha         1 LF2       0.143000
     31 H3          -1.7960     0.0010     1.1740 ha         1 LF2       0.130000
     32 H4           6.0200    -0.2130     1.6420 h1         1 LF2       0.054700
     33 H5           8.2890     0.0650     4.2360 hc         1 LF2       0.038922
     34 H6           9.3250    -0.9040     3.1780 hc         1 LF2       0.038922
     35 H7           8.1610     0.2300     2.4790 hc         1 LF2       0.038922
     36 H8           8.5960    -3.0380     4.1190 hc         1 LF2       0.038922
     37 H9           6.8760    -3.4120     4.2920 hc         1 LF2       0.038922
     38 H10          7.6150    -2.1630     5.3030 hc         1 LF2       0.038922
     39 H11          7.4390    -1.4670     1.1240 hc         1 LF2       0.038922
     40 H12          8.0330    -2.9770     1.8280 hc         1 LF2       0.038922
     41 H13          6.2930    -2.6790     1.7140 hc         1 LF2       0.038922
     42 H15          3.6000     1.9430    -0.6150 ha         1 LF2       0.150000
     43 H16          4.9370     1.9330    -2.6830 ha         1 LF2       0.136000
     44 H17          6.4580    -1.9390    -1.7000 ha         1 LF2       0.136000
     45 H18          5.1300    -1.9440     0.3740 ha         1 LF2       0.150000
     46 H19          4.6860     0.8220     5.0500 hc         1 LF2       0.070367
     47 H20          3.2360     0.1180     5.7800 hc         1 LF2       0.070367
     48 H21          4.5050    -0.9360     5.1410 hc         1 LF2       0.070367
@<TRIPOS>BOND
     1    18    15 1
     2    17    15 1
     3    15    16 1
     4    15    14 1
     5     6     5 ar
     6     6     1 ar
     7     5     4 ar
     8    11     1 1
     9     1     2 ar
    10     4    10 ar
    11     4     3 ar
    12    26    25 ar
    13    26    21 ar
    14    10     9 ar
    15    14    12 1
    16     2     3 ar
    17    25    24 ar
    18     3     7 ar
    19    27     9 1
    20     9     8 ar
    21     7     8 ar
    22     7    21 1
    23     8    12 1
    24    21    22 ar
    25    12    13 1
    26    24    28 1
    27    24    23 ar
    28    22    23 ar
    29    13    19 1
    30    13    20 1
    31     2    29 1
    32     5    30 1
    33     6    31 1
    34    12    32 1
    35    16    33 1
    36    16    34 1
    37    16    35 1
    38    17    36 1
    39    17    37 1
    40    17    38 1
    41    18    39 1
    42    18    40 1
    43    18    41 1
    44    22    42 1
    45    23    43 1
    46    25    44 1
    47    26    45 1
    48    27    46 1
    49    27    47 1
    50    27    48 1
@<TRIPOS>SUBSTRUCTURE
     1 LF2         1 TEMP              0 ****  ****    0 ROOT
