@<TRIPOS>MOLECULE
molecule
   49    52     1     0     0
SMALL
bcc


@<TRIPOS>ATOM
      1 O20          0.0000     0.0000     0.0000 o          1 LF7      -0.573100
      2 C14          1.2130     0.0000     0.0000 c          1 LF7       0.670100
      3 N15          1.8870     0.0000     1.1670 n          1 LF7      -0.500800
      4 C19          3.3540     0.0060     1.3130 c3         1 LF7       0.092000
      5 C18          3.6100     0.6160     2.7130 c3         1 LF7      -0.099400
      6 C17          2.4340     0.0230     3.5320 c3         1 LF7      -0.087400
      7 C16          1.2800    -0.0020     2.5060 c3         1 LF7       0.070400
      8 C20          0.4130     1.2180     2.6780 c2         1 LF7       0.428200
      9 N2          -0.8130     1.0890     3.0170 n2         1 LF7      -0.768100
     10 C13          1.9670    -0.0040    -1.3050 c3         1 LF7       0.081800
     11 N12          1.0120    -0.0090    -2.4220 n7         1 LF7      -0.785200
     12 C7           1.7130    -0.0140    -3.7130 c3         1 LF7       0.179200
     13 C8           2.5890     1.2350    -3.8220 c3         1 LF7      -0.086900
     14 C1           3.3190     1.2300    -5.1670 c3         1 LF7      -0.061700
     15 C2           4.1970    -0.0190    -5.2670 c3         1 LF7      -0.072400
     16 C10          3.3200    -1.2680    -5.1570 c3         1 LF7      -0.061700
     17 C9           2.5910    -1.2630    -3.8120 c3         1 LF7      -0.086900
     18 C5           2.2960    -1.2730    -6.2930 c3         1 LF7      -0.099900
     19 C21          2.2940     1.2260    -6.3030 c3         1 LF7      -0.099900
     20 C3           1.4170    -0.0240    -6.1940 c3         1 LF7       0.158800
     21 O4           0.4610    -0.0280    -7.2550 oh         1 LF7      -0.599800
     22 C6           0.6880    -0.0190    -4.8490 c3         1 LF7      -0.045400
     23 H1           3.7400    -1.0050     1.2670 h1         1 LF7       0.045200
     24 H2           3.8050     0.6240     0.5460 h1         1 LF7       0.045200
     25 H3           4.5620     0.2840     3.1100 hc         1 LF7       0.056700
     26 H4           3.5510     1.6970     2.6800 hc         1 LF7       0.056700
     27 H5           2.6690    -0.9800     3.8670 hc         1 LF7       0.061200
     28 H6           2.1880     0.6670     4.3680 hc         1 LF7       0.061200
     29 H7           0.6910    -0.9010     2.6400 h1         1 LF7       0.089700
     30 H8           0.8290     2.2050     2.5150 h4         1 LF7      -0.044200
     31 H9          -1.3890     1.8990     3.1320 hn         1 LF7       0.397400
     32 H10          2.5890     0.8800    -1.3650 h1         1 LF7       0.052200
     33 H11          2.5900    -0.8890    -1.3580 h1         1 LF7       0.052200
     34 H12          0.4260     0.7990    -2.3630 hn         1 LF7       0.371800
     35 H14          1.9680     2.1200    -3.7520 hc         1 LF7       0.047450
     36 H15          3.3150     1.2390    -3.0180 hc         1 LF7       0.047450
     37 H16          3.9390     2.1140    -5.2450 hc         1 LF7       0.051700
     38 H17          4.9230    -0.0150    -4.4620 hc         1 LF7       0.042200
     39 H18          4.7140    -0.0230    -6.2190 hc         1 LF7       0.042200
     40 H19          3.9420    -2.1520    -5.2280 hc         1 LF7       0.051700
     41 H20          1.9700    -2.1480    -3.7350 hc         1 LF7       0.047450
     42 H21          3.3170    -1.2600    -3.0080 hc         1 LF7       0.047450
     43 H22          1.6750    -2.1580    -6.2160 hc         1 LF7       0.048700
     44 H23          2.8120    -1.2770    -7.2450 hc         1 LF7       0.048700
     45 H24          1.6730     2.1100    -6.2330 hc         1 LF7       0.048700
     46 H25          2.8110     1.2220    -7.2560 hc         1 LF7       0.048700
     47 H26          0.9110    -0.0370    -8.0840 ho         1 LF7       0.402000
     48 H27          0.0660     0.8660    -4.7790 hc         1 LF7       0.063700
     49 H28          0.0670    -0.9030    -4.7710 hc         1 LF7       0.063700
@<TRIPOS>BOND
     1    21    20 1
     2    22    20 1
     3    22    12 1
     4    20    18 1
     5    20    19 1
     6    18    16 1
     7    11    12 1
     8    11    10 1
     9    12    17 1
    10    12    13 1
    11    19    14 1
    12    17    16 1
    13    16    15 1
    14    10     2 1
    15     1     2 2
    16    13    14 1
    17    14    15 1
    18     2     3 1
    19     3     7 1
    20     3     4 1
    21     7     8 1
    22     7     6 1
    23     4     5 1
    24     8     9 2
    25     6     5 1
    26     4    23 1
    27     4    24 1
    28     5    25 1
    29     5    26 1
    30     6    27 1
    31     6    28 1
    32     7    29 1
    33     8    30 1
    34     9    31 1
    35    10    32 1
    36    10    33 1
    37    11    34 1
    38    13    35 1
    39    13    36 1
    40    14    37 1
    41    15    38 1
    42    15    39 1
    43    16    40 1
    44    17    41 1
    45    17    42 1
    46    18    43 1
    47    18    44 1
    48    19    45 1
    49    19    46 1
    50    21    47 1
    51    22    48 1
    52    22    49 1
@<TRIPOS>SUBSTRUCTURE
     1 LF7         1 TEMP              0 ****  ****    0 ROOT
