@<TRIPOS>MOLECULE
LF7
   48    51     1     0     0
SMALL
bcc


@<TRIPOS>ATOM
      1 O20         1.1130   -1.2300   -0.3060 o         1 LF7     -0.598100
      2 C14         1.5580   -0.1040    0.0020 c         1 LF7      0.650100
      3 N15         1.8420    0.2730    1.2790 n         1 LF7     -0.445800
      4 C19         2.4980    1.5110    1.6600 c3        1 LF7      0.084000
      5 C18         2.8840    1.3870    3.1430 c3        1 LF7     -0.088400
      6 C17         2.4350    0.0030    3.6020 c3        1 LF7     -0.085400
      7 C16         1.6410   -0.6200    2.4270 c3        1 LF7      0.179800
      8 C20         0.2300   -0.7700    2.7800 c1        1 LF7      0.174700
      9 N2         -0.8870   -0.9080    3.0680 n1        1 LF7     -0.306800
     10 C13         1.8070    0.9260   -1.1190 c3        1 LF7      0.014800
     11 N12         1.1550    0.4900   -2.3840 n4        1 LF7     -0.752000
     12 C7          1.5890    1.2810   -3.5770 c3        1 LF7      0.135800
     13 C8          4.1200    0.7290   -3.5900 c3        1 LF7     -0.092900
     14 C1          5.0900    0.7370   -4.7850 c3        1 LF7     -0.056700
     15 C2          4.9420   -0.5760   -5.5680 c3        1 LF7     -0.080400
     16 C10         3.4900   -0.8400   -5.9910 c3        1 LF7     -0.056700
     17 C9          2.5840   -0.7900   -4.7480 c3        1 LF7     -0.092900
     18 C5          2.9570    0.3690   -6.7740 c3        1 LF7     -0.112400
     19 C21         4.5050    1.8920   -5.6110 c3        1 LF7     -0.112400
     20 C3          3.0250    1.4610   -5.6860 c3        1 LF7      0.161800
     21 O4          2.0990    2.5070   -5.8180 oh        1 LF7     -0.603800
     22 C6          2.7620    0.6780   -4.3140 c3        1 LF7     -0.099000
     23 H1          1.7940    2.3760    1.5040 h1        1 LF7      0.051700
     24 H2          3.4090    1.6740    1.0210 h1        1 LF7      0.051700
     25 H3          3.9880    1.5110    3.2680 hc        1 LF7      0.076700
     26 H4          2.3790    2.1880    3.7380 hc        1 LF7      0.076700
     27 H5          3.3160   -0.6460    3.8370 hc        1 LF7      0.083700
     28 H6          1.8000    0.0680    4.5200 hc        1 LF7      0.083700
     29 H7          2.0400   -1.6480    2.1620 h1        1 LF7      0.111700
     30 H10         1.4010    1.9380   -0.8330 hx        1 LF7      0.124700
     31 H11         2.9190    1.0100   -1.2970 hx        1 LF7      0.124700
     32 H12         1.3660   -0.5130   -2.5300 hn        1 LF7      0.466300
     33 H14         4.2820   -0.1500   -2.9240 hc        1 LF7      0.051950
     34 H15         4.2340    1.6650   -2.9910 hc        1 LF7      0.051950
     35 H16         6.1480    0.9070   -4.4810 hc        1 LF7      0.088200
     36 H17         5.3010   -1.4260   -4.9330 hc        1 LF7      0.063200
     37 H18         5.5860   -0.5300   -6.4830 hc        1 LF7      0.063200
     38 H19         3.4010   -1.7980   -6.5520 hc        1 LF7      0.088200
     39 H20         2.9140   -1.5140   -3.9650 hc        1 LF7      0.051950
     40 H21         1.5260   -1.0160   -5.0250 hc        1 LF7      0.051950
     41 H22         1.9090    0.2030   -7.1220 hc        1 LF7      0.070450
     42 H23         3.5880    0.6170   -7.6590 hc        1 LF7      0.070450
     43 H24         4.6190    2.8710   -5.0870 hc        1 LF7      0.070450
     44 H25         4.9710    1.9740   -6.6200 hc        1 LF7      0.070450
     45 H26         2.2800    2.9370   -6.6650 ho        1 LF7      0.435000
     46 H27         1.8390    2.3310   -3.2490 hx        1 LF7      0.119200
     47 H28         0.7050    1.3350   -4.2830 hx        1 LF7      0.119200
     48 H122        0.1370    0.5710   -2.2690 hn        1 LF7      0.466300
@<TRIPOS>BOND
     1    1    2 2   
     2    2    3 1   
     3    2   10 1   
     4    3    4 1   
     5    3    7 1   
     6    4    5 1   
     7    4   23 1   
     8    4   24 1   
     9    5    6 1   
    10    5   25 1   
    11    5   26 1   
    12    6    7 1   
    13    6   27 1   
    14    6   28 1   
    15    7    8 1   
    16    7   29 1   
    17    8    9 3   
    18   10   11 1   
    19   10   30 1   
    20   10   31 1   
    21   11   12 1   
    22   11   32 1   
    23   11   48 1   
    24   12   22 1   
    25   12   46 1   
    26   12   47 1   
    27   13   14 1   
    28   13   22 1   
    29   13   33 1   
    30   13   34 1   
    31   14   15 1   
    32   14   19 1   
    33   14   35 1   
    34   15   16 1   
    35   15   36 1   
    36   15   37 1   
    37   16   17 1   
    38   16   18 1   
    39   16   38 1   
    40   17   22 1   
    41   17   39 1   
    42   17   40 1   
    43   18   20 1   
    44   18   41 1   
    45   18   42 1   
    46   19   20 1   
    47   19   43 1   
    48   19   44 1   
    49   20   21 1   
    50   20   22 1   
    51   21   45 1   
@<TRIPOS>SUBSTRUCTURE
     1 LF7         1 TEMP              0 ****  ****    0 ROOT
