@<TRIPOS>MOLECULE
LF8
   61    63     1     0     0
SMALL
bcc


@<TRIPOS>ATOM
      1 N1         -0.0160   -0.0370   -0.0610 nb        1 LF8     -0.680000
      2 C2          1.3390   -0.0230   -0.0170 cp        1 LF8      0.423800
      3 C3          2.0660   -0.0500    1.1930 ca        1 LF8     -0.180600
      4 C4          1.3380   -0.0710    2.4040 cp        1 LF8     -0.018000
      5 C5         -0.0640   -0.0060    2.3740 ca        1 LF8     -0.114600
      6 C6         -0.7050   -0.0180    1.0980 ca        1 LF8      0.448600
      7 C7          2.0730   -0.1710    3.6740 cp        1 LF8     -0.033000
      8 C8          2.1160    0.9110    4.5650 ca        1 LF8     -0.104000
      9 C9          2.8460    0.8170    5.7490 ca        1 LF8     -0.140000
     10 C10         3.5250   -0.3650    6.0510 ca        1 LF8      0.012400
     11 C11         3.4670   -1.4620    5.1870 ca        1 LF8     -0.140000
     12 C12         2.7400   -1.3600    4.0030 ca        1 LF8     -0.104000
     13 CL          4.4300   -0.4810    7.4950 cl        1 LF8     -0.135400
     14 C14         3.5460   -0.0290    1.1900 c3        1 LF8     -0.049800
     15 C15        -2.1990   -0.0190    1.0200 c3        1 LF8     -0.169400
     16 C16         2.0440    0.0130   -1.3170 cp        1 LF8     -0.110500
     17 C17         2.9380    1.0500   -1.6110 ca        1 LF8     -0.116000
     18 C18         3.5880    1.0820   -2.8410 ca        1 LF8     -0.136000
     19 C19         3.3600    0.0880   -3.7980 ca        1 LF8     -0.090300
     20 C20         2.4570   -0.9500   -3.5110 ca        1 LF8     -0.091300
     21 C21         1.8020   -0.9770   -2.2760 ca        1 LF8     -0.098000
     22 C22         4.0600    0.1330   -5.1020 c3        1 LF8     -0.044800
     23 C23         2.1920   -2.0080   -4.5130 c3        1 LF8     -0.045800
     24 C24        -0.8490    0.1200    3.6470 c3        1 LF8      0.045400
     25 C25        -1.3330    1.5960    3.8590 c         1 LF8      0.909600
     26 O26        -1.9390   -0.8080    3.5820 os        1 LF8     -0.412600
     27 C27        -2.4360   -1.2670    4.8450 c3        1 LF8      0.164800
     28 C28        -3.7430   -1.9780    4.4880 c3        1 LF8     -0.110100
     29 C29        -1.4660   -2.2670    5.4680 c3        1 LF8     -0.110100
     30 C30        -2.7180   -0.1240    5.8070 c3        1 LF8     -0.110100
     31 O33        -2.4920    1.9290    3.5030 o         1 LF8     -0.822300
     32 O34        -0.5070    2.3720    4.4190 o         1 LF8     -0.822300
     33 H1          1.5160    1.8220    4.3490 ha        1 LF8      0.175500
     34 H2          2.8690    1.6700    6.4430 ha        1 LF8      0.138500
     35 H3          3.9850   -2.3990    5.4380 ha        1 LF8      0.138500
     36 H4          2.6840   -2.2230    3.3230 ha        1 LF8      0.175500
     37 H5          3.9090    1.0220    1.3280 hc        1 LF8      0.041367
     38 H6          3.9580   -0.4180    0.2260 hc        1 LF8      0.041367
     39 H7          3.9640   -0.6500    2.0210 hc        1 LF8      0.041367
     40 H8         -2.5710    0.2310   -0.0020 hc        1 LF8      0.069700
     41 H9         -2.6070    0.7240    1.7590 hc        1 LF8      0.069700
     42 H10        -2.5740   -1.0340    1.3060 hc        1 LF8      0.069700
     43 H11         3.1190    1.8380   -0.8650 ha        1 LF8      0.141000
     44 H12         4.2870    1.9020   -3.0640 ha        1 LF8      0.122000
     45 H13         1.0810   -1.7790   -2.0550 ha        1 LF8      0.143000
     46 H14         4.7390    1.0170   -5.1710 hc        1 LF8      0.035700
     47 H15         4.6700   -0.7940   -5.2480 hc        1 LF8      0.035700
     48 H16         3.3170    0.1910   -5.9380 hc        1 LF8      0.035700
     49 H17         1.4550   -2.7560   -4.1300 hc        1 LF8      0.036700
     50 H18         1.7820   -1.5570   -5.4520 hc        1 LF8      0.036700
     51 H19         3.1400   -2.5440   -4.7720 hc        1 LF8      0.036700
     52 H20        -0.1910   -0.1420    4.5240 h1        1 LF8      0.045700
     53 H21        -4.4430   -1.2540    4.0080 hc        1 LF8      0.039478
     54 H22        -3.5430   -2.8100    3.7720 hc        1 LF8      0.039478
     55 H23        -4.2100   -2.3900    5.4120 hc        1 LF8      0.039478
     56 H24        -0.5490   -1.7500    5.8380 hc        1 LF8      0.039478
     57 H25        -1.9550   -2.7810    6.3280 hc        1 LF8      0.039478
     58 H26        -1.1650   -3.0280    4.7100 hc        1 LF8      0.039478
     59 H27        -3.3360    0.6530    5.2900 hc        1 LF8      0.039478
     60 H28        -3.2580   -0.5070    6.7050 hc        1 LF8      0.039478
     61 H29        -1.7660    0.3610    6.1300 hc        1 LF8      0.039478
@<TRIPOS>BOND
     1    1    2 ar  
     2    1    6 ar  
     3    2    3 ar  
     4    2   16 1   
     5    3    4 ar  
     6    3   14 1   
     7    4    5 ar  
     8    4    7 1   
     9    5    6 ar  
    10    5   24 1   
    11    6   15 1   
    12    7    8 ar  
    13    7   12 ar  
    14    8    9 ar  
    15    8   33 1   
    16    9   10 ar  
    17    9   34 1   
    18   10   11 ar  
    19   10   13 1   
    20   11   12 ar  
    21   11   35 1   
    22   12   36 1   
    23   14   37 1   
    24   14   38 1   
    25   14   39 1   
    26   15   40 1   
    27   15   41 1   
    28   15   42 1   
    29   16   17 ar  
    30   16   21 ar  
    31   17   18 ar  
    32   17   43 1   
    33   18   19 ar  
    34   18   44 1   
    35   19   20 ar  
    36   19   22 1   
    37   20   21 ar  
    38   20   23 1   
    39   21   45 1   
    40   22   46 1   
    41   22   47 1   
    42   22   48 1   
    43   23   49 1   
    44   23   50 1   
    45   23   51 1   
    46   24   25 1   
    47   24   26 1   
    48   24   52 1   
    49   25   31 1   
    50   25   32 1   
    51   26   27 1   
    52   27   28 1   
    53   27   29 1   
    54   27   30 1   
    55   28   53 1   
    56   28   54 1   
    57   28   55 1   
    58   29   56 1   
    59   29   57 1   
    60   29   58 1   
    61   30   59 1   
    62   30   60 1   
    63   30   61 1   
@<TRIPOS>SUBSTRUCTURE
     1 LF8         1 TEMP              0 ****  ****    0 ROOT
