@<TRIPOS>MOLECULE
molecule
   61    63     1     0     0
SMALL
bcc


@<TRIPOS>ATOM
      1 N1           0.0000     0.0000     0.0000 nb         1 LF8      -0.698000
      2 C2           1.3270     0.0000     0.0000 cp         1 LF8       0.448800
      3 C3           2.0360     0.0000     1.1970 ca         1 LF8      -0.195600
      4 C4           1.3300     0.0000     2.4000 cp         1 LF8      -0.010000
      5 C5          -0.0680     0.0000     2.3480 ca         1 LF8      -0.113600
      6 C6          -0.6960    -0.0000     1.1200 ca         1 LF8       0.454600
      7 C7           2.0430    -0.0000     3.7010 cp         1 LF8      -0.004000
      8 C8           2.8260     1.0920     4.0700 ca         1 LF8      -0.094000
      9 C9           3.4870     1.0860     5.2810 ca         1 LF8      -0.129500
     10 C10          3.3730    -0.0020     6.1290 ca         1 LF8       0.025400
     11 C11          2.5970    -1.0900     5.7680 ca         1 LF8      -0.129500
     12 C12          1.9270    -1.0910     4.5610 ca         1 LF8      -0.094000
     13 Cl           4.2090    -0.0030     7.6510 cl         1 LF8      -0.144400
     14 C14          3.5440     0.0000     1.1930 c3         1 LF8      -0.047800
     15 C15         -2.2020    -0.0010     1.0560 c3         1 LF8      -0.146400
     16 C16          2.0610     0.0000    -1.2890 cp         1 LF8      -0.114500
     17 C17          3.2680     0.6880    -1.4070 ca         1 LF8      -0.127000
     18 C18          3.9480     0.6850    -2.6080 ca         1 LF8      -0.136000
     19 C19          3.4320     0.0000    -3.6940 ca         1 LF8      -0.093300
     20 C20          2.2350    -0.6830    -3.5840 ca         1 LF8      -0.096300
     21 C21          1.5500    -0.6910    -2.3850 ca         1 LF8      -0.091000
     22 C22          4.1780     0.0010    -5.0040 c3         1 LF8      -0.042800
     23 C23          1.6800    -1.4250    -4.7730 c3         1 LF8      -0.041800
     24 C24         -0.8780    -0.0000     3.6180 c3         1 LF8       0.063400
     25 C25         -1.4590     1.3720     3.8440 c          1 LF8       0.878600
     26 O26         -1.9380    -0.9520     3.5090 os         1 LF8      -0.411600
     27 C27         -2.3270    -1.5360     4.7540 c3         1 LF8       0.155800
     28 C28         -3.4620    -2.5340     4.5160 c3         1 LF8      -0.105767
     29 C29         -1.1310    -2.2600     5.3740 c3         1 LF8      -0.105767
     30 C30         -2.8060    -0.4360     5.7030 c3         1 LF8      -0.105767
     31 O33         -2.6560     1.5340     3.8140 o          1 LF8      -0.828300
     32 O34         -0.6450     2.4150     4.0790 o          1 LF8      -0.828300
     33 H1           2.9170     1.9440     3.4070 ha         1 LF8       0.147500
     34 H2           4.0960     1.9340     5.5690 ha         1 LF8       0.134000
     35 H3           2.5090    -1.9380     6.4360 ha         1 LF8       0.134000
     36 H4           1.3210    -1.9420     4.2790 ha         1 LF8       0.147500
     37 H5           3.9050     1.0200     1.1390 hc         1 LF8       0.041033
     38 H6           3.9070    -0.4640     2.1020 hc         1 LF8       0.041033
     39 H7           3.9030    -0.5560     0.3360 hc         1 LF8       0.041033
     40 H8          -2.5870     0.8470     1.6100 hc         1 LF8       0.064367
     41 H9          -2.5820    -0.9180     1.4910 hc         1 LF8       0.064367
     42 H10         -2.5200     0.0680     0.0230 hc         1 LF8       0.064367
     43 H11          3.6720     1.2240    -0.5560 ha         1 LF8       0.145000
     44 H12          4.8860     1.2190    -2.7010 ha         1 LF8       0.121000
     45 H13          0.6120    -1.2270    -2.2990 ha         1 LF8       0.149000
     46 H14          3.5530     0.4340    -5.7750 hc         1 LF8       0.035367
     47 H15          4.4330    -1.0170    -5.2740 hc         1 LF8       0.035367
     48 H16          5.0840     0.5850    -4.9030 hc         1 LF8       0.035367
     49 H17          1.5030    -0.7270    -5.5830 hc         1 LF8       0.037367
     50 H18          0.7470    -1.9020    -4.4970 hc         1 LF8       0.037367
     51 H19          2.3900    -2.1770    -5.0930 hc         1 LF8       0.037367
     52 H20         -0.2410    -0.2640     4.4530 h1         1 LF8       0.051700
     53 H21         -4.3050    -2.0230     4.0680 hc         1 LF8       0.038367
     54 H22         -3.1200    -3.3180     3.8500 hc         1 LF8       0.038367
     55 H23         -3.7640    -2.9700     5.4610 hc         1 LF8       0.038367
     56 H24         -1.4850    -3.0300     6.0490 hc         1 LF8       0.038367
     57 H25         -0.5240    -1.5500     5.9230 hc         1 LF8       0.038367
     58 H26         -0.5370    -2.7130     4.5900 hc         1 LF8       0.038367
     59 H27         -1.9760     0.2150     5.9490 hc         1 LF8       0.038367
     60 H28         -3.1940    -0.8850     6.6090 hc         1 LF8       0.038367
     61 H29         -3.5870     0.1410     5.2220 hc         1 LF8       0.038367
@<TRIPOS>BOND
     1    28    27 1
     2    29    27 1
     3    27    30 1
     4    27    26 1
     5    18    17 ar
     6    18    19 ar
     7    17    16 ar
     8    12    11 ar
     9    12     7 ar
    10    26    24 1
    11    11    10 ar
    12    22    19 1
    13    19    20 ar
    14    16     2 1
    15    16    21 ar
    16     1     2 ar
    17     1     6 ar
    18    15     6 1
    19     2     3 ar
    20     6     5 ar
    21     5     4 ar
    22     5    24 1
    23     3    14 1
    24     3     4 ar
    25     4     7 1
    26    24    25 1
    27     7     8 ar
    28    21    20 ar
    29    20    23 1
    30    10    13 1
    31    10     9 ar
    32    25    31 1
    33    25    32 1
    34     8     9 ar
    35     8    33 1
    36     9    34 1
    37    11    35 1
    38    12    36 1
    39    14    37 1
    40    14    38 1
    41    14    39 1
    42    15    40 1
    43    15    41 1
    44    15    42 1
    45    17    43 1
    46    18    44 1
    47    21    45 1
    48    22    46 1
    49    22    47 1
    50    22    48 1
    51    23    49 1
    52    23    50 1
    53    23    51 1
    54    24    52 1
    55    28    53 1
    56    28    54 1
    57    28    55 1
    58    29    56 1
    59    29    57 1
    60    29    58 1
    61    30    59 1
    62    30    60 1
    63    30    61 1
@<TRIPOS>SUBSTRUCTURE
     1 LF8         1 TEMP              0 ****  ****    0 ROOT
