@<TRIPOS>MOLECULE
molecule
   58    61     1     0     0
SMALL
bcc


@<TRIPOS>ATOM
      1 C1           0.0000     0.0000     0.0000 ca         1 LF9       0.364000
      2 C2           1.3920     0.0000     0.0000 ca         1 LF9      -0.144600
      3 C3           2.0680     0.0000     1.2220 cp         1 LF9      -0.015000
      4 C4           1.3110     0.0020     2.3970 ca         1 LF9      -0.095600
      5 C5          -0.0690     0.0020     2.3120 ca         1 LF9       0.452600
      6 N1          -0.6770     0.0070     1.1440 nb         1 LF9      -0.713000
      7 C7           3.5510    -0.0010     1.2720 cp         1 LF9      -0.013000
      8 C8           4.2670     1.0900     0.7850 ca         1 LF9      -0.100500
      9 C9           5.6470     1.0840     0.8340 ca         1 LF9      -0.137500
     10 C10          6.3170    -0.0030     1.3640 ca         1 LF9      -0.135000
     11 C11          5.6110    -1.0890     1.8490 ca         1 LF9      -0.137500
     12 C12          4.2310    -1.0910     1.8110 ca         1 LF9      -0.100500
     13 C13          2.1580    -0.0030    -1.2990 c3         1 LF9      -0.042800
     14 C14         -0.8900     0.0040     3.5750 c3         1 LF9      -0.148400
     15 C15          1.9910     0.0020     3.7420 c3         1 LF9       0.061400
     16 C16          1.8310     1.3550     4.3850 c          1 LF9       0.876600
     17 O17          1.3990    -0.9960     4.5760 os         1 LF9      -0.412600
     18 O18          1.1890     1.4680     5.4030 o          1 LF9      -0.825800
     19 O19          2.4010     2.4360     3.8280 o          1 LF9      -0.825800
     20 C20          2.2960    -1.5600     5.5330 c3         1 LF9       0.156800
     21 C21          3.4700    -2.2190     4.8060 c3         1 LF9      -0.106433
     22 C22          2.8210    -0.4560     6.4530 c3         1 LF9      -0.106433
     23 C23          1.5580    -2.6110     6.3660 c3         1 LF9      -0.106433
     24 C24         -0.7330    -0.0000    -1.2860 cc         1 LF9       0.419800
     25 N2          -2.0880    -0.1370    -1.4180 na         1 LF9      -0.242300
     26 C26         -2.3740    -0.0860    -2.7680 ca         1 LF9      -0.101200
     27 C27         -1.1400     0.0840    -3.4230 ca         1 LF9       0.104400
     28 N3          -0.1830     0.1340    -2.4660 nd         1 LF9      -0.616100
     29 C29         -3.5450    -0.1660    -3.5080 ca         1 LF9      -0.116000
     30 C30         -1.1080     0.1710    -4.8190 ca         1 LF9      -0.072000
     31 C31         -3.4970    -0.0780    -4.8820 ca         1 LF9      -0.126000
     32 C32         -2.2820     0.0900    -5.5350 ca         1 LF9       0.007400
     33 Cl          -2.2430     0.1990    -7.2670 cl         1 LF9      -0.130400
     34 H1           3.7430     1.9420     0.3690 ha         1 LF9       0.141500
     35 H2           6.2050     1.9310     0.4550 ha         1 LF9       0.120000
     36 H3           7.4000    -0.0040     1.3980 ha         1 LF9       0.114000
     37 H4           6.1420    -1.9370     2.2650 ha         1 LF9       0.120000
     38 H5           3.6790    -1.9420     2.1910 ha         1 LF9       0.141500
     39 H6           2.0570     0.9630    -1.7790 hc         1 LF9       0.050367
     40 H7           1.7620    -0.7730    -1.9490 hc         1 LF9       0.050367
     41 H8           3.2040    -0.2000    -1.1000 hc         1 LF9       0.050367
     42 H9          -0.7520    -0.9360     4.0970 hc         1 LF9       0.065700
     43 H10         -0.5710     0.8200     4.2120 hc         1 LF9       0.065700
     44 H11         -1.9360     0.1280     3.3250 hc         1 LF9       0.065700
     45 H12          3.0450    -0.2130     3.6140 h1         1 LF9       0.057700
     46 H14          3.1210    -2.6530     3.8770 hc         1 LF9       0.038811
     47 H15          3.8910    -2.9960     5.4320 hc         1 LF9       0.038811
     48 H16          4.2280    -1.4750     4.5950 hc         1 LF9       0.038811
     49 H17          1.9860     0.0790     6.8880 hc         1 LF9       0.038811
     50 H18          3.4320     0.2320     5.8800 hc         1 LF9       0.038811
     51 H19          3.4180    -0.8970     7.2420 hc         1 LF9       0.038811
     52 H20          1.2010    -3.4010     5.7160 hc         1 LF9       0.038811
     53 H21          2.2330    -3.0270     7.1030 hc         1 LF9       0.038811
     54 H22          0.7160    -2.1480     6.8670 hc         1 LF9       0.038811
     55 H23         -2.7280    -0.3860    -0.6900 hn         1 LF9       0.320700
     56 H25         -4.4960    -0.2970    -3.0060 ha         1 LF9       0.129000
     57 H26         -0.1650     0.3020    -5.3340 ha         1 LF9       0.151000
     58 H27         -4.4120    -0.1400    -5.4580 ha         1 LF9       0.137000
@<TRIPOS>BOND
     1    18    16 1
     2    19    16 1
     3    11    12 ar
     4    11    10 ar
     5    16    15 1
     6    12     7 ar
     7    10     9 ar
     8    15     4 1
     9    15    17 1
    10     7     3 1
    11     7     8 ar
    12     4     3 ar
    13     4     5 ar
    14     3     2 ar
    15    14     5 1
    16     5     6 ar
    17     9     8 ar
    18    25    26 1
    19    25    24 1
    20     2    13 1
    21     2     1 ar
    22    17    20 1
    23     6     1 ar
    24     1    24 1
    25    29    26 ar
    26    29    31 ar
    27    26    27 ar
    28    24    28 2
    29    23    20 1
    30    31    32 ar
    31    20    22 1
    32    20    21 1
    33    27    28 1
    34    27    30 ar
    35    32    30 ar
    36    32    33 1
    37     8    34 1
    38     9    35 1
    39    10    36 1
    40    11    37 1
    41    12    38 1
    42    13    39 1
    43    13    40 1
    44    13    41 1
    45    14    42 1
    46    14    43 1
    47    14    44 1
    48    15    45 1
    49    21    46 1
    50    21    47 1
    51    21    48 1
    52    22    49 1
    53    22    50 1
    54    22    51 1
    55    23    52 1
    56    23    53 1
    57    23    54 1
    58    25    55 1
    59    29    56 1
    60    30    57 1
    61    31    58 1
@<TRIPOS>SUBSTRUCTURE
     1 LF9         1 TEMP              0 ****  ****    0 ROOT
