@<TRIPOS>MOLECULE
LF9
   58    61     1     0     0
SMALL
bcc


@<TRIPOS>ATOM
      1 C1          0.1570   -0.0060   -0.1380 ca        1 LF9      0.337000
      2 C2          1.5650    0.0040   -0.1080 ca        1 LF9     -0.127600
      3 C3          2.1940   -0.0250    1.1620 cp        1 LF9     -0.022000
      4 C4          1.4130    0.0030    2.3290 ca        1 LF9     -0.095600
      5 C5         -0.0100   -0.0330    2.1850 ca        1 LF9      0.450600
      6 N1         -0.6120   -0.0470    0.9840 nb        1 LF9     -0.701000
      7 C7          3.6600   -0.1050    1.2310 cp        1 LF9     -0.044000
      8 C8          4.4170    0.9720    1.7140 ca        1 LF9     -0.107000
      9 C9          5.8090    0.8840    1.7470 ca        1 LF9     -0.147000
     10 C10         6.4550   -0.2730    1.3150 ca        1 LF9     -0.139000
     11 C11         5.7040   -1.3550    0.8540 ca        1 LF9     -0.147000
     12 C12         4.3140   -1.2730    0.8110 ca        1 LF9     -0.107000
     13 C13         2.3560    0.0570   -1.3580 c3        1 LF9     -0.054800
     14 C14        -0.8800   -0.0730    3.4020 c3        1 LF9     -0.171400
     15 C15         2.0590    0.1020    3.6800 c3        1 LF9      0.039400
     16 C16         1.9500    1.5620    4.2490 c         1 LF9      0.910600
     17 O17         1.4290   -0.8620    4.5340 os        1 LF9     -0.415600
     18 O18         1.0060    1.8550    5.0280 o         1 LF9     -0.818300
     19 O19         2.8650    2.3580    3.9000 o         1 LF9     -0.818300
     20 C20         2.2310   -1.3390    5.6220 c3        1 LF9      0.164800
     21 C21         3.2970   -2.3040    5.1150 c3        1 LF9     -0.110767
     22 C22         2.8660   -0.2060    6.4130 c3        1 LF9     -0.110767
     23 C23         1.2360   -2.0940    6.5060 c3        1 LF9     -0.110767
     24 C24        -0.5940    0.0070   -1.4150 cc        1 LF9      0.408800
     25 N2         -1.8060   -0.7230   -1.5380 na        1 LF9     -0.261300
     26 C26        -2.2980   -0.4710   -2.8170 ca        1 LF9     -0.079200
     27 C27        -1.3130    0.3880   -3.4580 ca        1 LF9      0.077400
     28 N3         -0.2720    0.6650   -2.5530 nd        1 LF9     -0.574100
     29 C29        -3.4430   -0.8980   -3.4980 ca        1 LF9     -0.126000
     30 C30        -1.5100    0.7960   -4.7830 ca        1 LF9     -0.070000
     31 C31        -3.6110   -0.4750   -4.8080 ca        1 LF9     -0.123000
     32 C32        -2.6580    0.3540   -5.4310 ca        1 LF9     -0.009600
     33 CL         -2.9330    0.8320   -7.0490 cl        1 LF9     -0.124400
     34 H1          3.9000    1.8680    2.1190 ha        1 LF9      0.168000
     35 H2          6.3930    1.7330    2.1310 ha        1 LF9      0.123000
     36 H3          7.5510   -0.3380    1.3450 ha        1 LF9      0.114000
     37 H4          6.2080   -2.2750    0.5260 ha        1 LF9      0.123000
     38 H5          3.7230   -2.1270    0.4480 ha        1 LF9      0.168000
     39 H6          1.9840   -0.6970   -2.0960 hc        1 LF9      0.051367
     40 H7          2.2720    1.0760   -1.8160 hc        1 LF9      0.051367
     41 H8          3.4400   -0.1470   -1.1760 hc        1 LF9      0.051367
     42 H9         -0.4910    0.6640    4.1590 hc        1 LF9      0.071367
     43 H10        -0.8220   -1.0950    3.8530 hc        1 LF9      0.071367
     44 H11        -1.9460    0.1620    3.1700 hc        1 LF9      0.071367
     45 H12         3.1560   -0.1380    3.5940 h1        1 LF9      0.051700
     46 H14         4.0950   -1.7560    4.5590 hc        1 LF9      0.039811
     47 H15         2.8370   -3.0550    4.4300 hc        1 LF9      0.039811
     48 H16         3.7660   -2.8340    5.9760 hc        1 LF9      0.039811
     49 H17         2.0820    0.5490    6.6760 hc        1 LF9      0.039811
     50 H18         3.6430    0.3130    5.8020 hc        1 LF9      0.039811
     51 H19         3.3360   -0.6070    7.3410 hc        1 LF9      0.039811
     52 H20         1.7680   -2.5210    7.3870 hc        1 LF9      0.039811
     53 H21         0.7580   -2.9180    5.9260 hc        1 LF9      0.039811
     54 H22         0.4400   -1.3940    6.8550 hc        1 LF9      0.039811
     55 H23        -2.3060   -1.1250   -0.7870 hn        1 LF9      0.319700
     56 H25        -4.1860   -1.5440   -3.0130 ha        1 LF9      0.135000
     57 H26        -0.7760    1.4440   -5.2840 ha        1 LF9      0.157000
     58 H27        -4.5030   -0.7910   -5.3700 ha        1 LF9      0.137000
@<TRIPOS>BOND
     1    1    2 ar  
     2    1    6 ar  
     3    1   24 1   
     4    2    3 ar  
     5    2   13 1   
     6    3    4 ar  
     7    3    7 1   
     8    4    5 ar  
     9    4   15 1   
    10    5    6 ar  
    11    5   14 1   
    12    7    8 ar  
    13    7   12 ar  
    14    8    9 ar  
    15    8   34 1   
    16    9   10 ar  
    17    9   35 1   
    18   10   11 ar  
    19   10   36 1   
    20   11   12 ar  
    21   11   37 1   
    22   12   38 1   
    23   13   39 1   
    24   13   40 1   
    25   13   41 1   
    26   14   42 1   
    27   14   43 1   
    28   14   44 1   
    29   15   16 1   
    30   15   17 1   
    31   15   45 1   
    32   16   18 1   
    33   16   19 1   
    34   17   20 1   
    35   20   21 1   
    36   20   22 1   
    37   20   23 1   
    38   21   46 1   
    39   21   47 1   
    40   21   48 1   
    41   22   49 1   
    42   22   50 1   
    43   22   51 1   
    44   23   52 1   
    45   23   53 1   
    46   23   54 1   
    47   24   25 1   
    48   24   28 2   
    49   25   26 1   
    50   25   55 1   
    51   26   27 ar  
    52   26   29 ar  
    53   27   28 1   
    54   27   30 ar  
    55   29   31 ar  
    56   29   56 1   
    57   30   32 ar  
    58   30   57 1   
    59   31   32 ar  
    60   31   58 1   
    61   32   33 1   
@<TRIPOS>SUBSTRUCTURE
     1 LF9         1 TEMP              0 ****  ****    0 ROOT
