@<TRIPOS>MOLECULE
LFA
   62    61     1     0     0
SMALL
bcc


@<TRIPOS>ATOM
      1 C1          0.0070   -0.0000   -0.0130 c3        1 LFA     -0.092100
      2 C2          1.5140    0.0000    0.0140 c3        1 LFA     -0.080400
      3 C3          2.0440   -0.0000    1.4320 c3        1 LFA     -0.079400
      4 C4          3.5570    0.0000    1.4550 c3        1 LFA     -0.079400
      5 C5          4.0860   -0.0000    2.8730 c3        1 LFA     -0.079400
      6 C6          5.6000    0.0000    2.8950 c3        1 LFA     -0.079400
      7 C7          6.1280    0.0000    4.3130 c3        1 LFA     -0.079400
      8 C8          7.6420    0.0000    4.3360 c3        1 LFA     -0.079400
      9 C9          8.1710    0.0000    5.7540 c3        1 LFA     -0.079400
     10 C10         9.6840    0.0010    5.7760 c3        1 LFA     -0.079400
     11 C11        10.2130    0.0000    7.1950 c3        1 LFA     -0.079400
     12 C12        11.7260    0.0010    7.2170 c3        1 LFA     -0.079400
     13 C13        12.2550    0.0010    8.6350 c3        1 LFA     -0.079400
     14 C14        13.7680    0.0010    8.6580 c3        1 LFA     -0.079400
     15 C15        14.2970    0.0010   10.0760 c3        1 LFA     -0.079400
     16 C16        15.8110    0.0010   10.0980 c3        1 LFA     -0.079400
     17 C17        16.3400    0.0010   11.5160 c3        1 LFA     -0.079400
     18 C18        17.8530    0.0010   11.5390 c3        1 LFA     -0.079400
     19 C19        18.3830    0.0010   12.9570 c3        1 LFA     -0.080400
     20 C20        19.8900    0.0010   12.9840 c3        1 LFA     -0.092100
     21 H11        -0.3620   -0.0000   -1.0670 hc        1 LFA      0.032700
     22 H12        -0.3970    0.9050    0.5020 hc        1 LFA      0.032700
     23 H13        -0.3970   -0.9050    0.5020 hc        1 LFA      0.032700
     24 H21         1.9010    0.9020   -0.5290 hc        1 LFA      0.038700
     25 H22         1.9010   -0.9020   -0.5290 hc        1 LFA      0.038700
     26 H31         1.6600   -0.9030    1.9760 hc        1 LFA      0.039700
     27 H32         1.6590    0.9020    1.9770 hc        1 LFA      0.039700
     28 H41         3.9420   -0.9020    0.9100 hc        1 LFA      0.039700
     29 H42         3.9420    0.9030    0.9100 hc        1 LFA      0.039700
     30 H51         3.7020   -0.9030    3.4170 hc        1 LFA      0.039700
     31 H52         3.7020    0.9020    3.4170 hc        1 LFA      0.039700
     32 H61         5.9840   -0.9020    2.3500 hc        1 LFA      0.039700
     33 H62         5.9840    0.9030    2.3510 hc        1 LFA      0.039700
     34 H71         5.7450   -0.9030    4.8580 hc        1 LFA      0.039700
     35 H72         5.7440    0.9020    4.8580 hc        1 LFA      0.039700
     36 H81         8.0260    0.9030    3.7910 hc        1 LFA      0.039700
     37 H82         8.0260   -0.9020    3.7910 hc        1 LFA      0.039700
     38 H91         7.7860    0.9020    6.2990 hc        1 LFA      0.039700
     39 H92         7.7870   -0.9030    6.2980 hc        1 LFA      0.039700
     40 H101       10.0680    0.9040    5.2320 hc        1 LFA      0.039700
     41 H102       10.0690   -0.9010    5.2310 hc        1 LFA      0.039700
     42 H111        9.8280    0.9020    7.7400 hc        1 LFA      0.039700
     43 H112        9.8290   -0.9030    7.7390 hc        1 LFA      0.039700
     44 H121       12.1110   -0.9010    6.6720 hc        1 LFA      0.039700
     45 H122       12.1100    0.9040    6.6730 hc        1 LFA      0.039700
     46 H131       11.8710    0.9030    9.1800 hc        1 LFA      0.039700
     47 H132       11.8710   -0.9020    9.1800 hc        1 LFA      0.039700
     48 H141       14.1520    0.9030    8.1130 hc        1 LFA      0.039700
     49 H142       14.1530   -0.9020    8.1130 hc        1 LFA      0.039700
     50 H151       13.9130    0.9040   10.6200 hc        1 LFA      0.039700
     51 H152       13.9130   -0.9010   10.6200 hc        1 LFA      0.039700
     52 H161       16.1950   -0.9020    9.5540 hc        1 LFA      0.039700
     53 H162       16.1950    0.9030    9.5530 hc        1 LFA      0.039700
     54 H171       15.9550   -0.9010   12.0610 hc        1 LFA      0.039700
     55 H172       15.9550    0.9040   12.0610 hc        1 LFA      0.039700
     56 H181       18.2370   -0.9010   10.9950 hc        1 LFA      0.039700
     57 H182       18.2380    0.9030   10.9940 hc        1 LFA      0.039700
     58 H191       17.9970    0.9040   13.5000 hc        1 LFA      0.038700
     59 H192       17.9970   -0.9010   13.5000 hc        1 LFA      0.038700
     60 H201       20.2940    0.9060   12.4690 hc        1 LFA      0.032700
     61 H202       20.2590    0.0010   14.0380 hc        1 LFA      0.032700
     62 H203       20.2940   -0.9040   12.4690 hc        1 LFA      0.032700
@<TRIPOS>BOND
     1    1    2 1   
     2    1   21 1   
     3    1   22 1   
     4    1   23 1   
     5    2    3 1   
     6    2   24 1   
     7    2   25 1   
     8    3    4 1   
     9    3   26 1   
    10    3   27 1   
    11    4    5 1   
    12    4   28 1   
    13    4   29 1   
    14    5    6 1   
    15    5   30 1   
    16    5   31 1   
    17    6    7 1   
    18    6   32 1   
    19    6   33 1   
    20    7    8 1   
    21    7   34 1   
    22    7   35 1   
    23    8    9 1   
    24    8   36 1   
    25    8   37 1   
    26    9   10 1   
    27    9   38 1   
    28    9   39 1   
    29   10   11 1   
    30   10   40 1   
    31   10   41 1   
    32   11   12 1   
    33   11   42 1   
    34   11   43 1   
    35   12   13 1   
    36   12   44 1   
    37   12   45 1   
    38   13   14 1   
    39   13   46 1   
    40   13   47 1   
    41   14   15 1   
    42   14   48 1   
    43   14   49 1   
    44   15   16 1   
    45   15   50 1   
    46   15   51 1   
    47   16   17 1   
    48   16   52 1   
    49   16   53 1   
    50   17   18 1   
    51   17   54 1   
    52   17   55 1   
    53   18   19 1   
    54   18   56 1   
    55   18   57 1   
    56   19   20 1   
    57   19   58 1   
    58   19   59 1   
    59   20   60 1   
    60   20   61 1   
    61   20   62 1   
@<TRIPOS>SUBSTRUCTURE
     1 LFA         1 TEMP              0 ****  ****    0 ROOT
