@<TRIPOS>MOLECULE
molecule
   62    61     1     0     0
SMALL
bcc


@<TRIPOS>ATOM
      1 C1           0.0000     0.0000     0.0000 c3         1 LFA      -0.092100
      2 C2           1.5300     0.0000     0.0000 c3         1 LFA      -0.084400
      3 C3           2.0410     0.0000     1.4420 c3         1 LFA      -0.081400
      4 C4           3.5700    -0.0000     1.4410 c3         1 LFA      -0.082400
      5 C5           4.0820     0.0000     2.8830 c3         1 LFA      -0.081400
      6 C6           5.6120     0.0000     2.8830 c3         1 LFA      -0.081400
      7 C7           6.1230     0.0000     4.3240 c3         1 LFA      -0.081400
      8 C8           7.6520     0.0000     4.3240 c3         1 LFA      -0.081400
      9 C9           8.1640     0.0000     5.7650 c3         1 LFA      -0.082400
     10 C10          9.6930     0.0010     5.7650 c3         1 LFA      -0.081400
     11 C11         10.2040    -0.0000     7.2060 c3         1 LFA      -0.081400
     12 C12         11.7330     0.0010     7.2060 c3         1 LFA      -0.082400
     13 C13         12.2450     0.0010     8.6470 c3         1 LFA      -0.081400
     14 C14         13.7740     0.0010     8.6470 c3         1 LFA      -0.081400
     15 C15         14.2850     0.0010    10.0880 c3         1 LFA      -0.081400
     16 C16         15.8150     0.0010    10.0880 c3         1 LFA      -0.081400
     17 C17         16.3270     0.0010    11.5300 c3         1 LFA      -0.082400
     18 C18         17.8560     0.0010    11.5290 c3         1 LFA      -0.081400
     19 C19         18.3670     0.0010    12.9710 c3         1 LFA      -0.084400
     20 C20         19.8970     0.0010    12.9710 c3         1 LFA      -0.092100
     21 H11         -0.3610    -0.8850     0.5110 hc         1 LFA       0.032367
     22 H12         -0.3610     0.8850     0.5110 hc         1 LFA       0.032367
     23 H13         -0.3610    -0.0000    -1.0210 hc         1 LFA       0.032367
     24 H21          1.8910     0.8840    -0.5110 hc         1 LFA       0.039700
     25 H22          1.8910    -0.8840    -0.5110 hc         1 LFA       0.039700
     26 H31          1.6810     0.8840     1.9530 hc         1 LFA       0.040700
     27 H32          1.6810    -0.8840     1.9530 hc         1 LFA       0.040700
     28 H41          3.9310    -0.8840     0.9300 hc         1 LFA       0.040700
     29 H42          3.9310     0.8840     0.9300 hc         1 LFA       0.040700
     30 H51          3.7210    -0.8840     3.3940 hc         1 LFA       0.040700
     31 H52          3.7210     0.8840     3.3940 hc         1 LFA       0.040700
     32 H61          5.9730     0.8840     2.3720 hc         1 LFA       0.040700
     33 H62          5.9730    -0.8840     2.3720 hc         1 LFA       0.040700
     34 H71          5.7620    -0.8840     4.8350 hc         1 LFA       0.040700
     35 H72          5.7620     0.8840     4.8350 hc         1 LFA       0.040700
     36 H81          8.0130    -0.8840     3.8130 hc         1 LFA       0.040700
     37 H82          8.0130     0.8840     3.8130 hc         1 LFA       0.040700
     38 H91          7.8030    -0.8850     6.2760 hc         1 LFA       0.040700
     39 H92          7.8020     0.8840     6.2760 hc         1 LFA       0.040700
     40 H101        10.0540    -0.8830     5.2530 hc         1 LFA       0.040700
     41 H102        10.0530     0.8860     5.2550 hc         1 LFA       0.040700
     42 H111         9.8430     0.8840     7.7180 hc         1 LFA       0.040700
     43 H112         9.8440    -0.8850     7.7160 hc         1 LFA       0.040700
     44 H121        12.0950    -0.8830     6.6950 hc         1 LFA       0.040700
     45 H122        12.0940     0.8860     6.6950 hc         1 LFA       0.040700
     46 H131        11.8840     0.8850     9.1580 hc         1 LFA       0.040700
     47 H132        11.8840    -0.8830     9.1580 hc         1 LFA       0.040700
     48 H141        14.1350    -0.8830     8.1360 hc         1 LFA       0.040700
     49 H142        14.1350     0.8850     8.1360 hc         1 LFA       0.040700
     50 H151        13.9240    -0.8830    10.5990 hc         1 LFA       0.040700
     51 H152        13.9240     0.8850    10.5990 hc         1 LFA       0.040700
     52 H161        16.1760     0.8850     9.5770 hc         1 LFA       0.040700
     53 H162        16.1760    -0.8830     9.5770 hc         1 LFA       0.040700
     54 H171        15.9660    -0.8830    12.0410 hc         1 LFA       0.040700
     55 H172        15.9660     0.8850    12.0410 hc         1 LFA       0.040700
     56 H181        18.2160     0.8850    11.0180 hc         1 LFA       0.040700
     57 H182        18.2160    -0.8830    11.0180 hc         1 LFA       0.040700
     58 H191        18.0060    -0.8830    13.4820 hc         1 LFA       0.039700
     59 H192        18.0060     0.8850    13.4820 hc         1 LFA       0.039700
     60 H201        20.2580     0.8860    12.4600 hc         1 LFA       0.032367
     61 H202        20.2580     0.0010    13.9920 hc         1 LFA       0.032367
     62 H203        20.2580    -0.8840    12.4600 hc         1 LFA       0.032367
@<TRIPOS>BOND
     1     1     2 1
     2     1    21 1
     3     1    22 1
     4     1    23 1
     5     2     3 1
     6     2    24 1
     7     2    25 1
     8     3     4 1
     9     3    26 1
    10     3    27 1
    11     4     5 1
    12     4    28 1
    13     4    29 1
    14     5     6 1
    15     5    30 1
    16     5    31 1
    17     6     7 1
    18     6    32 1
    19     6    33 1
    20     7     8 1
    21     7    34 1
    22     7    35 1
    23     8     9 1
    24     8    36 1
    25     8    37 1
    26     9    10 1
    27     9    38 1
    28     9    39 1
    29    10    11 1
    30    10    40 1
    31    10    41 1
    32    11    12 1
    33    11    42 1
    34    11    43 1
    35    12    13 1
    36    12    44 1
    37    12    45 1
    38    13    14 1
    39    13    46 1
    40    13    47 1
    41    14    15 1
    42    14    48 1
    43    14    49 1
    44    15    16 1
    45    15    50 1
    46    15    51 1
    47    16    17 1
    48    16    52 1
    49    16    53 1
    50    17    18 1
    51    17    54 1
    52    17    55 1
    53    18    19 1
    54    18    56 1
    55    18    57 1
    56    19    20 1
    57    19    58 1
    58    19    59 1
    59    20    60 1
    60    20    61 1
    61    20    62 1
@<TRIPOS>SUBSTRUCTURE
     1 LFA         1 TEMP              0 ****  ****    0 ROOT
