@<TRIPOS>MOLECULE
molecule
   23    22     1     0     0
SMALL
bcc


@<TRIPOS>ATOM
      1 O1A          0.0000     0.0000     0.0000 o          1 LFC      -0.835800
      2 C1           1.2250     0.0000     0.0000 c          1 LFC       0.882600
      3 O1B          1.9600    -0.0430    -1.1390 o          1 LFC      -0.835800
      4 C2           2.0840     0.0000     1.2510 c3         1 LFC       0.026100
      5 O2           1.2200     0.1090     2.3750 oh         1 LFC      -0.646800
      6 C3           2.9790    -1.2320     1.4500 c3         1 LFC       0.168100
      7 O3           2.2050    -2.4270     1.4030 oh         1 LFC      -0.599800
      8 C4           3.8820    -1.2450     2.7040 c3         1 LFC       0.126100
      9 O4           4.6370    -0.0250     2.6730 oh         1 LFC      -0.595800
     10 C5           4.8650    -2.4190     2.8720 c3         1 LFC       0.147100
     11 C6           5.7670    -2.2440     4.0910 c3         1 LFC      -0.120100
     12 O5           5.6920    -2.5430     1.7190 oh         1 LFC      -0.583800
     13 H2           2.7190     0.8770     1.2240 h1         1 LFC       0.032700
     14 HO2          0.9460     1.0060     2.4750 ho         1 LFC       0.394000
     15 H3           3.6450    -1.2630     0.5960 h1         1 LFC       0.112700
     16 HO3          1.5160    -2.3800     2.0440 ho         1 LFC       0.398000
     17 H4           3.2410    -1.2220     3.5770 h1         1 LFC       0.026700
     18 HO4          4.4720     0.4670     3.4600 ho         1 LFC       0.383000
     19 H5           4.2950    -3.3330     2.9900 h1         1 LFC       0.030700
     20 H61          5.1680    -1.9500     4.9450 hc         1 LFC       0.034033
     21 H62          6.5050    -1.4780     3.8870 hc         1 LFC       0.034033
     22 H63          6.2680    -3.1800     4.3070 hc         1 LFC       0.034033
     23 HO5          5.9230    -3.4490     1.5940 ho         1 LFC       0.387000
@<TRIPOS>BOND
     1     1     2 1
     2     2     3 1
     3     2     4 1
     4     4     5 1
     5     4     6 1
     6     4    13 1
     7     5    14 1
     8     6     7 1
     9     6     8 1
    10     6    15 1
    11     7    16 1
    12     8     9 1
    13     8    10 1
    14     8    17 1
    15     9    18 1
    16    10    11 1
    17    10    12 1
    18    10    19 1
    19    11    20 1
    20    11    21 1
    21    11    22 1
    22    12    23 1
@<TRIPOS>SUBSTRUCTURE
     1 LFC         1 TEMP              0 ****  ****    0 ROOT
