@<TRIPOS>MOLECULE
LFC
   23    22     1     0     0
SMALL
bcc


@<TRIPOS>ATOM
      1 O1A         0.8760    0.1850   -0.5110 o         1 LFC     -0.824300
      2 C1          1.9920    0.1440    0.0730 c         1 LFC      0.899600
      3 O1B         3.1180    0.2920   -0.4780 o         1 LFC     -0.824300
      4 C2          1.9690   -0.1140    1.6030 c3        1 LFC     -0.028900
      5 O2          0.6490   -0.1730    2.1080 oh        1 LFC     -0.639800
      6 C3          2.7030   -1.4270    1.9310 c3        1 LFC      0.102100
      7 O3          1.9610   -2.2760    2.7910 oh        1 LFC     -0.617800
      8 C4          4.0720   -1.1410    2.5780 c3        1 LFC      0.101100
      9 O4          4.8740   -0.2500    1.8250 oh        1 LFC     -0.649800
     10 C5          4.8680   -2.4500    2.7650 c3        1 LFC      0.124100
     11 C6          5.8940   -2.2940    3.8750 c3        1 LFC     -0.118100
     12 O5          5.5110   -2.8480    1.5660 oh        1 LFC     -0.613800
     13 H2          2.4630    0.7460    2.1330 h1        1 LFC      0.056700
     14 HO2         0.0620   -0.3180    1.3470 ho        1 LFC      0.435000
     15 H3          2.8680   -2.0270    0.9910 h1        1 LFC      0.088700
     16 HO3         1.3570   -1.7240    3.3040 ho        1 LFC      0.412000
     17 H4          3.9170   -0.6610    3.5840 h1        1 LFC      0.040700
     18 HO4         4.4350   -0.0730    0.9700 ho        1 LFC      0.467000
     19 H5          4.1540   -3.2900    3.0000 h1        1 LFC      0.079700
     20 H61         5.3800   -2.1510    4.8540 hc        1 LFC      0.032033
     21 H62         6.5390   -3.2030    3.9300 hc        1 LFC      0.032033
     22 H63         6.5410   -1.4070    3.6720 hc        1 LFC      0.032033
     23 HO5         5.8790   -2.0510    1.1610 ho        1 LFC      0.414000
@<TRIPOS>BOND
     1    1    2 1   
     2    2    3 1   
     3    2    4 1   
     4    4    5 1   
     5    4    6 1   
     6    4   13 1   
     7    5   14 1   
     8    6    7 1   
     9    6    8 1   
    10    6   15 1   
    11    7   16 1   
    12    8    9 1   
    13    8   10 1   
    14    8   17 1   
    15    9   18 1   
    16   10   11 1   
    17   10   12 1   
    18   10   19 1   
    19   11   20 1   
    20   11   21 1   
    21   11   22 1   
    22   12   23 1   
@<TRIPOS>SUBSTRUCTURE
     1 LFC         1 TEMP              0 ****  ****    0 ROOT
