@<TRIPOS>MOLECULE
molecule
   64    68     1     0     0
SMALL
bcc


@<TRIPOS>ATOM
      1 OAA          0.0000     0.0000     0.0000 o          1 LFD      -0.577000
      2 ClB          4.1240    -2.8250    -6.7370 cl         1 LFD      -0.089400
      3 ClD         -3.5400     2.4280    12.5060 cl         1 LFD      -0.087400
      4 ClE         -0.5610    -1.2040    -4.5890 cl         1 LFD      -0.089400
      5 CAF         -0.6790     3.2250    -0.0560 cc         1 LFD       0.327200
      6 CAG          3.9330    -1.4250    -4.4280 ca         1 LFD      -0.123000
      7 CAH         -0.0540    -0.5050     2.5140 ca         1 LFD      -0.114500
      8 CAI          1.7440     0.7930     3.4450 ca         1 LFD      -0.114500
      9 CAJ         -3.4440    -1.4810    11.6820 ca         1 LFD      -0.093000
     10 CAK         -0.7410    -0.4100     3.7070 ca         1 LFD      -0.150000
     11 CAL          1.0570     0.8880     4.6390 ca         1 LFD      -0.150000
     12 CAM         -2.7170    -1.5260    10.5080 ca         1 LFD      -0.115000
     13 CAN          3.2370    -0.7740    -3.4260 ca         1 LFD      -0.084000
     14 CAO          0.4180     2.7940    -0.7080 cd         1 LFD      -0.284600
     15 CAP         -1.3700     2.1280    -1.7810 cd         1 LFD       0.411400
     16 CAQ          1.8680    -1.9410    -5.5300 ca         1 LFD      -0.115000
     17 CAR         -2.4940     0.8670    10.5600 ca         1 LFD      -0.164000
     18 CAS         -0.1200     1.1600     6.9700 c3         1 LFD       0.162800
     19 CAT         -1.2150    -0.9490     6.5080 c3         1 LFD       0.162800
     20 CAU         -0.9480     1.3100     8.2490 c3         1 LFD       0.157300
     21 CAV         -2.0430    -0.7990     7.7870 c3         1 LFD       0.157300
     22 CAW          0.8190     1.4450    -2.8100 c3         1 LFD       0.030300
     23 NAX         -1.7570     2.8040    -0.7340 nc         1 LFD      -0.692000
     24 NAY          1.8890     0.0000     1.1670 ns         1 LFD      -0.459100
     25 OAZ          1.8890     0.0020    -1.1660 os         1 LFD      -0.440900
     26 CBA          1.2150     0.0000     0.0000 c          1 LFD       0.748100
     27 CBB          3.2490    -2.0090    -5.4790 ca         1 LFD       0.042400
     28 CBC          1.1910     0.0960     2.3790 ca         1 LFD       0.039600
     29 CBD         -3.6970    -0.2680    12.2950 ca         1 LFD       0.009400
     30 CBE         -3.2220     0.9060    11.7330 ca         1 LFD       0.046400
     31 CBF          1.1720    -1.2890    -4.5270 ca         1 LFD       0.041400
     32 CBG         -0.1880     0.2870     4.7740 ca         1 LFD       0.092600
     33 CBH         -2.2390    -0.3510     9.9420 ca         1 LFD       0.108600
     34 CBI          1.8570    -0.7060    -3.4760 ca         1 LFD      -0.098300
     35 CBJ          1.0980     0.0020    -2.3840 c3         1 LFD       0.195400
     36 NBK         -0.8840     0.3830     5.9840 nh         1 LFD      -0.596000
     37 NBL         -1.2800    -0.0220     8.7740 nh         1 LFD      -0.604000
     38 NBM         -0.0200     2.0990    -1.8030 na         1 LFD      -0.189900
     39 HAF         -0.6880     3.8090     0.8560 h4         1 LFD       0.039100
     40 HAG          5.0140    -1.4780    -4.3890 ha         1 LFD       0.152000
     41 HAH         -0.4850    -1.0490     1.6820 ha         1 LFD       0.150000
     42 HAI          2.7150     1.2620     3.3400 ha         1 LFD       0.150000
     43 HAJ         -3.8170    -2.3980    12.1230 ha         1 LFD       0.155000
     44 HAK         -1.7110    -0.8790     3.8120 ha         1 LFD       0.141000
     45 HAL          1.4890     1.4320     5.4700 ha         1 LFD       0.141000
     46 HAM         -2.5200    -2.4780    10.0290 ha         1 LFD       0.145000
     47 HAN          3.7720    -0.3180    -2.6030 ha         1 LFD       0.158000
     48 HAO          1.4490     2.9650    -0.4210 h4         1 LFD       0.168000
     49 HAP         -2.0230     1.6680    -2.5130 h5         1 LFD       0.061100
     50 HAQ          1.3300    -2.4390    -6.3270 ha         1 LFD       0.163000
     51 HAR         -2.1230     1.7850    10.1210 ha         1 LFD       0.156000
     52 HAS          0.8040     0.6440     7.1980 h1         1 LFD       0.052700
     53 HASA         0.0980     2.1410     6.5650 h1         1 LFD       0.052700
     54 HAT         -0.3010    -1.4860     6.7320 h1         1 LFD       0.052700
     55 HATA        -1.7890    -1.4950     5.7690 h1         1 LFD       0.052700
     56 HAU         -1.8620     1.8470     8.0250 h1         1 LFD       0.051950
     57 HAUA        -0.3740     1.8560     8.9880 h1         1 LFD       0.051950
     58 HAV         -2.2610    -1.7800     8.1920 h1         1 LFD       0.051950
     59 HAVA        -2.9680    -0.2830     7.5590 h1         1 LFD       0.051950
     60 HAW          1.7550     1.9820    -2.9030 h1         1 LFD       0.076200
     61 HAWA         0.3060     1.4470    -3.7640 h1         1 LFD       0.076200
     62 HNAY         2.8840    -0.1040     1.1700 hn         1 LFD       0.329500
     63 HBJ          0.1600    -0.5090    -2.2060 h1         1 LFD       0.104700
     64 ClC         -4.6110    -0.2140    13.7700 cl         1 LFD      -0.087400
@<TRIPOS>BOND
     1     1    26 2
     2     2    27 1
     3    64    29 1
     4     3    30 1
     5     4    31 1
     6     5    14 2
     7     5    23 1
     8     6    13 ar
     9     6    27 ar
    10     7    10 ar
    11     7    28 ar
    12     8    11 ar
    13     8    28 ar
    14     9    12 ar
    15     9    29 ar
    16    10    32 ar
    17    11    32 ar
    18    12    33 ar
    19    13    34 ar
    20    14    38 1
    21    15    23 2
    22    15    38 1
    23    16    27 ar
    24    16    31 ar
    25    17    30 ar
    26    17    33 ar
    27    18    20 1
    28    18    36 1
    29    19    21 1
    30    19    36 1
    31    20    37 1
    32    21    37 1
    33    22    35 1
    34    22    38 1
    35    24    26 1
    36    24    28 1
    37    25    26 1
    38    25    35 1
    39    29    30 ar
    40    31    34 ar
    41    32    36 1
    42    33    37 1
    43    34    35 1
    44     5    39 1
    45     6    40 1
    46     7    41 1
    47     8    42 1
    48     9    43 1
    49    10    44 1
    50    11    45 1
    51    12    46 1
    52    13    47 1
    53    14    48 1
    54    15    49 1
    55    16    50 1
    56    17    51 1
    57    18    52 1
    58    18    53 1
    59    19    54 1
    60    19    55 1
    61    20    56 1
    62    20    57 1
    63    21    58 1
    64    21    59 1
    65    22    60 1
    66    22    61 1
    67    24    62 1
    68    35    63 1
@<TRIPOS>SUBSTRUCTURE
     1 LFD         1 TEMP              0 ****  ****    0 ROOT
