@<TRIPOS>MOLECULE
LFD
   64    68     1     0     0
SMALL
bcc


@<TRIPOS>ATOM
      1 OAA          0.0000     0.0000     0.0000 o          1 LFD      -0.633000
      2 ClB          4.1240    -2.8250    -6.7370 cl         1 LFD      -0.009400
      3 ClD         -3.5400     2.4280    12.5060 cl         1 LFD      -0.005400
      4 ClE         -0.5610    -1.2040    -4.5890 cl         1 LFD      -0.003400
      5 CAF         -0.6790     3.2250    -0.0560 cc         1 LFD       0.339200
      6 CAG          3.9330    -1.4250    -4.4280 ca         1 LFD      -0.099000
      7 CAH         -0.0540    -0.5050     2.5140 ca         1 LFD      -0.083500
      8 CAI          1.7440     0.7930     3.4450 ca         1 LFD      -0.083500
      9 CAJ         -3.4440    -1.4810    11.6820 ca         1 LFD      -0.071000
     10 CAK         -0.7410    -0.4100     3.7070 ca         1 LFD      -0.129500
     11 CAL          1.0570     0.8880     4.6390 ca         1 LFD      -0.129500
     12 CAM         -2.7170    -1.5260    10.5080 ca         1 LFD      -0.079000
     13 CAN          3.2370    -0.7740    -3.4260 ca         1 LFD      -0.058000
     14 CAO          0.4180     2.7940    -0.7080 cd         1 LFD      -0.447600
     15 CAP         -1.3700     2.1280    -1.7810 cd         1 LFD       0.240400
     16 CAQ          1.8680    -1.9410    -5.5300 ca         1 LFD      -0.095000
     17 CAR         -2.4940     0.8670    10.5600 ca         1 LFD      -0.164000
     18 CAS         -0.1200     1.1600     6.9700 c3         1 LFD       0.133800
     19 CAT         -1.2150    -0.9490     6.5080 c3         1 LFD       0.133800
     20 CAU         -0.9480     1.3100     8.2490 c3         1 LFD       0.146800
     21 CAV         -2.0430    -0.7990     7.7870 c3         1 LFD       0.146800
     22 CAW          0.8190     1.4450    -2.8100 c3         1 LFD      -0.064700
     23 NAX         -1.7570     2.8040    -0.7340 nc         1 LFD      -0.617000
     24 NAY          1.8890     0.0000     1.1670 ns         1 LFD       0.004900
     25 OAZ          1.8890     0.0020    -1.1660 os         1 LFD      -0.420900
     26 CBA          1.2150     0.0000     0.0000 c          1 LFD       0.658100
     27 CBB          3.2490    -2.0090    -5.4790 ca         1 LFD      -0.022600
     28 CBC          1.1910     0.0960     2.3790 ca         1 LFD      -0.120400
     29 CBD         -3.6970    -0.2680    12.2950 ca         1 LFD      -0.058600
     30 CBE         -3.2220     0.9060    11.7330 ca         1 LFD      -0.018600
     31 CBF          1.1720    -1.2890    -4.5270 ca         1 LFD      -0.020600
     32 CBG         -0.1880     0.2870     4.7740 ca         1 LFD       0.017600
     33 CBH         -2.2390    -0.3510     9.9420 ca         1 LFD       0.050600
     34 CBI          1.8570    -0.7060    -3.4760 ca         1 LFD      -0.114300
     35 CBJ          1.0980     0.0020    -2.3840 c3         1 LFD       0.236400
     36 NBK         -0.8840     0.3830     5.9840 nh         1 LFD      -0.361000
     37 NBL         -1.2800    -0.0220     8.7740 nh         1 LFD      -0.413000
     38 NBM         -0.0200     2.0990    -1.8030 na         1 LFD       0.290100
     39 HAF         -0.6880     3.8090     0.8560 h4         1 LFD      -0.000900
     40 HAG          5.0140    -1.4780    -4.3890 ha         1 LFD       0.119000
     41 HAH         -0.4850    -1.0490     1.6820 ha         1 LFD       0.125000
     42 HAI          2.7150     1.2620     3.3400 ha         1 LFD       0.125000
     43 HAJ         -3.8170    -2.3980    12.1230 ha         1 LFD       0.119000
     44 HAK         -1.7110    -0.8790     3.8120 ha         1 LFD       0.120500
     45 HAL          1.4890     1.4320     5.4700 ha         1 LFD       0.120500
     46 HAM         -2.5200    -2.4780    10.0290 ha         1 LFD       0.115000
     47 HAN          3.7720    -0.3180    -2.6030 ha         1 LFD       0.122000
     48 HAO          1.4490     2.9650    -0.4210 h4         1 LFD       0.147000
     49 HAP         -2.0230     1.6680    -2.5130 h5         1 LFD       0.019100
     50 HAQ          1.3300    -2.4390    -6.3270 ha         1 LFD       0.130000
     51 HAR         -2.1230     1.7850    10.1210 ha         1 LFD       0.135000
     52 HAS          0.8040     0.6440     7.1980 h1         1 LFD       0.026200
     53 HASA         0.0980     2.1410     6.5650 h1         1 LFD       0.026200
     54 HAT         -0.3010    -1.4860     6.7320 h1         1 LFD       0.026200
     55 HATA        -1.7890    -1.4950     5.7690 h1         1 LFD       0.026200
     56 HAU         -1.8620     1.8470     8.0250 h1         1 LFD       0.024450
     57 HAUA        -0.3740     1.8560     8.9880 h1         1 LFD       0.024450
     58 HAV         -2.2610    -1.7800     8.1920 h1         1 LFD       0.024450
     59 HAVA        -2.9680    -0.2830     7.5590 h1         1 LFD       0.024450
     60 HAW          1.7550     1.9820    -2.9030 h1         1 LFD       0.047200
     61 HAWA         0.3060     1.4470    -3.7640 h1         1 LFD       0.047200
     62 HNAY         2.8840    -0.1040     1.1700 hn         1 LFD       0.164500
     63 HBJ          0.1600    -0.5090    -2.2060 h1         1 LFD       0.068700
     64 ClC         -4.6110    -0.2140    13.7700 cl         1 LFD      -0.003400
@<TRIPOS>BOND
     1     1    26 2   
     2     2    27 1   
     3     3    30 1   
     4     4    31 1   
     5     5    14 2   
     6     5    23 1   
     7     5    39 1   
     8     6    13 ar  
     9     6    27 ar  
    10     6    40 1   
    11     7    10 ar  
    12     7    28 ar  
    13     7    41 1   
    14     8    11 ar  
    15     8    28 ar  
    16     8    42 1   
    17     9    12 ar  
    18     9    29 ar  
    19     9    43 1   
    20    10    32 ar  
    21    10    44 1   
    22    11    32 ar  
    23    11    45 1   
    24    12    33 ar  
    25    12    46 1   
    26    13    34 ar  
    27    13    47 1   
    28    14    38 1   
    29    14    48 1   
    30    15    23 2   
    31    15    38 1   
    32    15    49 1   
    33    16    27 ar  
    34    16    31 ar  
    35    16    50 1   
    36    17    30 ar  
    37    17    33 ar  
    38    17    51 1   
    39    18    20 1   
    40    18    36 1   
    41    18    52 1   
    42    18    53 1   
    43    19    21 1   
    44    19    36 1   
    45    19    54 1   
    46    19    55 1   
    47    20    37 1   
    48    20    56 1   
    49    20    57 1   
    50    21    37 1   
    51    21    58 1   
    52    21    59 1   
    53    22    35 1   
    54    22    38 1   
    55    22    60 1   
    56    22    61 1   
    57    24    26 1   
    58    24    28 1   
    59    24    62 1   
    60    25    26 1   
    61    25    35 1   
    62    29    30 ar  
    63    29    64 1   
    64    31    34 ar  
    65    32    36 1   
    66    33    37 1   
    67    34    35 1   
    68    35    63 1   
@<TRIPOS>SUBSTRUCTURE
     1 LFD         1 TEMP              0 ****  ****    0 ROOT
