@<TRIPOS>MOLECULE
LFF
   68    69     1     0     0
SMALL
bcc


@<TRIPOS>ATOM
      1 C01          0.0000     0.0000     0.0000 c3         1 LFF       0.002400
      2 C02          1.5300     0.0000     0.0000 c3         1 LFF      -0.057700
      3 C03          2.0410     0.0000     1.4430 c3         1 LFF       0.002400
      4 C04          2.0400    -1.2490    -0.7210 c3         1 LFF      -0.059400
      5 C05          3.5650    -1.1880    -0.8310 c3         1 LFF      -0.045300
      6 N06          3.9480    -0.0630    -1.6870 ns         1 LFF      -0.187900
      7 C07          3.5270    -0.0160    -2.9670 c          1 LFF       0.558100
      8 C08          3.9210     1.1420    -3.8470 c3         1 LFF      -0.071100
      9 O09          2.8310    -0.9050    -3.4090 o          1 LFF      -0.568100
     10 C10          4.0770    -2.4720    -1.4310 c          1 LFF       0.531100
     11 O11          4.3700    -2.5190    -2.6070 o          1 LFF      -0.649100
     12 N12          4.2100    -3.5690    -0.6590 ns         1 LFF      -0.077900
     13 C13          4.7090    -4.8180    -1.2420 c3         1 LFF      -0.029500
     14 C14          5.7530    -5.4350    -0.3100 c3         1 LFF       0.029900
     15 C15          6.9390    -4.5100    -0.2030 ca         1 LFF      -0.045300
     16 C16          7.9370    -4.5500    -1.1580 ca         1 LFF      -0.104000
     17 C17          9.0230    -3.7020    -1.0600 ca         1 LFF      -0.115000
     18 C18          9.1130    -2.8130    -0.0050 ca         1 LFF      -0.146000
     19 C19          8.1140    -2.7710     0.9510 ca         1 LFF      -0.115000
     20 C20          7.0250    -3.6170     0.8500 ca         1 LFF      -0.104000
     21 P21          3.3230    -5.9830    -1.4560 p5         1 LFF       0.318400
     22 O22          2.3620    -5.4320    -2.4370 o          1 LFF      -0.595500
     23 O23          2.5820    -6.2030    -0.0440 o          1 LFF      -0.595500
     24 C24          3.9610    -7.5810    -2.0620 c3         1 LFF      -0.011600
     25 C25          2.7880    -8.5120    -2.3760 c3         1 LFF      -0.110700
     26 C26          3.2830    -9.6880    -3.2200 c3         1 LFF       0.041900
     27 C27          2.1090   -10.5400    -3.6320 ca         1 LFF      -0.029300
     28 C28          1.4430   -10.2710    -4.8130 ca         1 LFF      -0.051500
     29 C29          0.3660   -11.0520    -5.1910 ca         1 LFF      -0.141500
     30 C30         -0.0430   -12.1000    -4.3880 ca         1 LFF      -0.143000
     31 C31          0.6240   -12.3680    -3.2080 ca         1 LFF      -0.141500
     32 C32          1.7040   -11.5910    -2.8330 ca         1 LFF      -0.051500
     33 C33          2.2000    -9.0310    -1.0890 c          1 LFF       0.974600
     34 O34          1.1540    -9.8700    -1.1190 o          1 LFF      -0.890300
     35 O35          2.6700    -8.6900    -0.0290 o          1 LFF      -0.890300
     36 H01         -0.3610    -0.8720     0.5320 hc         1 LFF      -0.000633
     37 H01A        -0.3610     0.8970     0.4890 hc         1 LFF      -0.000633
     38 H01B        -0.3610    -0.0250    -1.0210 hc         1 LFF      -0.000633
     39 H02          1.8910     0.8840    -0.5110 hc         1 LFF       0.010700
     40 H03          3.0300     0.4410     1.4760 hc         1 LFF      -0.000633
     41 H03A         1.3670     0.5770     2.0650 hc         1 LFF      -0.000633
     42 H03B         2.0870    -1.0180     1.8100 hc         1 LFF      -0.000633
     43 H04          1.7530    -2.1310    -0.1610 hc         1 LFF       0.068200
     44 H04A         1.6080    -1.2950    -1.7130 hc         1 LFF       0.068200
     45 H05          3.9940    -1.0540     0.1550 h1         1 LFF       0.021700
     46 HN06         4.5600     0.6470    -1.3360 hn         1 LFF       0.146500
     47 H08          4.9980     1.1590    -3.9600 hc         1 LFF       0.008367
     48 H08A         3.4580     1.0290    -4.8200 hc         1 LFF       0.008367
     49 H08B         3.5910     2.0690    -3.3950 hc         1 LFF       0.008367
     50 HN12         3.9220    -3.5450     0.2990 hn         1 LFF       0.159500
     51 H13          5.1600    -4.6120    -2.2050 h1         1 LFF       0.063700
     52 H14          5.3200    -5.5810     0.6720 hc         1 LFF       0.037700
     53 H14A         6.0750    -6.3890    -0.7080 hc         1 LFF       0.037700
     54 H16          7.8670    -5.2460    -1.9850 ha         1 LFF       0.109500
     55 H17          9.8050    -3.7350    -1.8090 ha         1 LFF       0.083500
     56 H18          9.9660    -2.1490     0.0730 ha         1 LFF       0.081000
     57 H19          8.1830    -2.0730     1.7760 ha         1 LFF       0.083500
     58 H20          6.2430    -3.5840     1.5980 ha         1 LFF       0.109500
     59 H24          4.5870    -8.0310    -1.3010 hc         1 LFF       0.000700
     60 H24A         4.5450    -7.4190    -2.9600 hc         1 LFF       0.000700
     61 H25          2.0310    -7.9670    -2.9250 hc         1 LFF       0.054700
     62 H26          3.7840    -9.3120    -4.1040 hc         1 LFF      -0.012800
     63 H26A         3.9760   -10.2840    -2.6390 hc         1 LFF      -0.012800
     64 H28          1.7640    -9.4500    -5.4420 ha         1 LFF       0.109000
     65 H29         -0.1570   -10.8420    -6.1170 ha         1 LFF       0.074000
     66 H30         -0.8880   -12.7100    -4.6830 ha         1 LFF       0.066000
     67 H31          0.3050   -13.1910    -2.5790 ha         1 LFF       0.074000
     68 H32          2.2280   -11.8010    -1.9080 ha         1 LFF       0.109000
@<TRIPOS>BOND
     1     1     2 1   
     2     1    36 1   
     3     1    37 1   
     4     1    38 1   
     5     2     3 1   
     6     2     4 1   
     7     2    39 1   
     8     3    40 1   
     9     3    41 1   
    10     3    42 1   
    11     4     5 1   
    12     4    43 1   
    13     4    44 1   
    14     5     6 1   
    15     5    10 1   
    16     5    45 1   
    17     6     7 1   
    18     6    46 1   
    19     7     8 1   
    20     7     9 2   
    21     8    47 1   
    22     8    48 1   
    23     8    49 1   
    24    10    11 2   
    25    10    12 1   
    26    12    13 1   
    27    12    50 1   
    28    13    14 1   
    29    13    21 1   
    30    13    51 1   
    31    14    15 1   
    32    14    52 1   
    33    14    53 1   
    34    15    16 ar  
    35    15    20 ar  
    36    16    17 ar  
    37    16    54 1   
    38    17    18 ar  
    39    17    55 1   
    40    18    19 ar  
    41    18    56 1   
    42    19    20 ar  
    43    19    57 1   
    44    20    58 1   
    45    21    22 1   
    46    21    23 1   
    47    21    24 1   
    48    24    25 1   
    49    24    59 1   
    50    24    60 1   
    51    25    26 1   
    52    25    33 1   
    53    25    61 1   
    54    26    27 1   
    55    26    62 1   
    56    26    63 1   
    57    27    28 ar  
    58    27    32 ar  
    59    28    29 ar  
    60    28    64 1   
    61    29    30 ar  
    62    29    65 1   
    63    30    31 ar  
    64    30    66 1   
    65    31    32 ar  
    66    31    67 1   
    67    32    68 1   
    68    33    34 1   
    69    33    35 1   
@<TRIPOS>SUBSTRUCTURE
     1 LFF         1 TEMP              0 ****  ****    0 ROOT
