@<TRIPOS>MOLECULE
LFN
   31    33     1     0     0
SMALL
bcc


@<TRIPOS>ATOM
      1 N1         -0.0010    0.0010   -0.0810 nc        1 LFN     -0.419400
      2 C2          1.4130    0.0010   -0.0970 c         1 LFN      0.851900
      3 C10        -0.6410    0.0000    1.0770 cd        1 LFN      0.087400
      4 O2          2.0520    0.0020   -1.1650 o         1 LFN     -0.582500
      5 N3          2.1510    0.0010    1.1150 n         1 LFN     -0.615500
      6 C4          1.5610    0.0000    2.3720 c         1 LFN      0.610000
      7 O4          2.2660    0.0000    3.3920 o         1 LFN     -0.570500
      8 C4A         0.0520   -0.0000    2.4110 cd        1 LFN      0.303800
      9 N5         -0.5630   -0.0010    3.5610 nc        1 LFN     -0.516000
     10 C5A        -1.9570   -0.0010    3.5620 ca        1 LFN      0.288600
     11 C6         -2.6430   -0.0010    4.8020 ca        1 LFN     -0.100300
     12 C9A        -2.7100   -0.0010    2.3440 ca        1 LFN     -0.007600
     13 C7         -4.0270   -0.0020    4.8530 ca        1 LFN     -0.110300
     14 C7M        -4.7280   -0.0020    6.1580 c3        1 LFN     -0.052800
     15 C8         -4.7720   -0.0010    3.6500 ca        1 LFN     -0.006300
     16 C8M        -6.2530   -0.0020    3.7030 c3        1 LFN     -0.065800
     17 C9         -4.1250   -0.0010    2.4220 ca        1 LFN     -0.181000
     18 N10        -2.0430   -0.0000    1.1110 na        1 LFN     -0.107100
     19 C1'        -2.8280   -0.0000   -0.1020 c3        1 LFN      0.006600
     20 H3          3.1470    0.0010    1.0570 hn        1 LFN      0.349500
     21 H6         -2.0550   -0.0020    5.7360 ha        1 LFN      0.164000
     22 H7M1       -5.3750    0.9070    6.2510 hc        1 LFN      0.050033
     23 H7M2       -5.3830   -0.9050    6.2460 hc        1 LFN      0.050033
     24 H7M3       -4.0030   -0.0070    7.0090 hc        1 LFN      0.050033
     25 H8M1       -6.7030    0.0040    2.6800 hc        1 LFN      0.055367
     26 H8M2       -6.6170    0.9010    4.2560 hc        1 LFN      0.055367
     27 H8M3       -6.6160   -0.9110    4.2460 hc        1 LFN      0.055367
     28 H9         -4.7340   -0.0010    1.5040 ha        1 LFN      0.148000
     29 H1'1       -3.4770   -0.9180   -0.1250 h1        1 LFN      0.069033
     30 H1'2       -3.4770    0.9170   -0.1250 h1        1 LFN      0.069033
     31 H1'3       -2.1790    0.0000   -1.0180 h1        1 LFN      0.069033
@<TRIPOS>BOND
     1    1    2 1   
     2    1    3 2   
     3    2    4 2   
     4    2    5 1   
     5    3    8 1   
     6    3   18 1   
     7    5    6 1   
     8    5   20 1   
     9    6    7 2   
    10    6    8 1   
    11    8    9 2   
    12    9   10 1   
    13   10   11 ar  
    14   10   12 ar  
    15   11   13 ar  
    16   11   21 1   
    17   12   17 ar  
    18   12   18 1   
    19   13   14 1   
    20   13   15 ar  
    21   14   22 1   
    22   14   23 1   
    23   14   24 1   
    24   15   16 1   
    25   15   17 ar  
    26   16   25 1   
    27   16   26 1   
    28   16   27 1   
    29   17   28 1   
    30   18   19 1   
    31   19   29 1   
    32   19   30 1   
    33   19   31 1   
@<TRIPOS>SUBSTRUCTURE
     1 LFN         1 TEMP              0 ****  ****    0 ROOT
