@<TRIPOS>MOLECULE
LFR
   24    24     1     0     0
SMALL
bcc


@<TRIPOS>ATOM
      1 C1          1.5390   -0.0750    0.1370 c3        1 LFR      0.117400
      2 C2          0.0240    0.1660    0.1490 c3        1 LFR      0.264600
      3 C3         -0.6410    0.0040    1.5370 c3        1 LFR      0.109100
      4 C4         -1.6110    1.2080    1.6390 c3        1 LFR      0.089100
      5 C5         -1.3000    2.1000    0.4230 c3        1 LFR      0.105100
      6 C6         -2.5030    2.2220   -0.5120 c3        1 LFR      0.118400
      7 O1          2.0370    0.0580   -1.1760 oh        1 LFR     -0.596800
      8 O2         -0.6640   -0.6410   -0.7740 oh        1 LFR     -0.618800
      9 O3         -1.2940   -1.2260    1.7140 oh        1 LFR     -0.581800
     10 O4         -1.3590    1.9730    2.8010 oh        1 LFR     -0.586800
     11 O5         -0.2150    1.4990   -0.3050 os        1 LFR     -0.458600
     12 O6         -2.2160    3.0720   -1.6010 oh        1 LFR     -0.592800
     13 H1C1        2.0420    0.6390    0.8380 h1        1 LFR      0.071200
     14 H1C2        1.7510   -1.1380    0.4290 h1        1 LFR      0.071200
     15 H3          0.1340    0.0480    2.3510 h1        1 LFR      0.098700
     16 H4         -2.6760    0.8520    1.6290 h1        1 LFR      0.062700
     17 H5         -0.9300    3.1150    0.7370 h1        1 LFR      0.103700
     18 H6C1       -2.8000    1.2040   -0.8830 h1        1 LFR      0.056200
     19 H6C2       -3.3610    2.7090    0.0220 h1        1 LFR      0.056200
     20 H1          1.9290    0.9850   -1.4290 ho        1 LFR      0.417000
     21 H2         -0.1410   -0.6620   -1.5890 ho        1 LFR      0.439000
     22 HA         -1.8150   -1.4110    0.9190 ho        1 LFR      0.428000
     23 HB         -1.6040    1.4210    3.5550 ho        1 LFR      0.413000
     24 H6         -1.4290    2.7190   -2.0350 ho        1 LFR      0.410000
@<TRIPOS>BOND
     1    1    2 1   
     2    1    7 1   
     3    1   13 1   
     4    1   14 1   
     5    2    3 1   
     6    2    8 1   
     7    2   11 1   
     8    3    4 1   
     9    3    9 1   
    10    3   15 1   
    11    4    5 1   
    12    4   10 1   
    13    4   16 1   
    14    5    6 1   
    15    5   11 1   
    16    5   17 1   
    17    6   12 1   
    18    6   18 1   
    19    6   19 1   
    20    7   20 1   
    21    8   21 1   
    22    9   22 1   
    23   10   23 1   
    24   12   24 1   
@<TRIPOS>SUBSTRUCTURE
     1 LFR         1 TEMP              0 ****  ****    0 ROOT
