@<TRIPOS>MOLECULE
molecule
   24    24     1     0     0
SMALL
bcc


@<TRIPOS>ATOM
      1 C1           1.5290     0.0000     0.0000 c3         1 LFR       0.121400
      2 C2           0.0000     0.0000     0.0000 c3         1 LFR       0.339600
      3 C3          -0.5260     0.0000     1.4520 c3         1 LFR       0.111100
      4 C4          -1.7470     0.9580     1.3620 c3         1 LFR       0.091100
      5 C5          -1.2480     1.9690     0.2990 c3         1 LFR       0.139100
      6 C6          -2.4350     2.6300    -0.4030 c3         1 LFR       0.144400
      7 O1           2.0060     0.0100    -1.3480 oh         1 LFR      -0.597800
      8 O2          -0.4850    -1.1530    -0.6910 oh         1 LFR      -0.580800
      9 O3          -0.9310    -1.3130     1.8450 oh         1 LFR      -0.567800
     10 O4          -1.9890     1.6010     2.6150 oh         1 LFR      -0.597800
     11 O5          -0.4870     1.1880    -0.6360 os         1 LFR      -0.403600
     12 O6          -1.9580     3.6170    -1.3200 oh         1 LFR      -0.596800
     13 H1C1         1.8910     0.8810     0.5170 h1         1 LFR       0.033700
     14 H1C2         1.8910    -0.8880     0.5040 h1         1 LFR       0.033700
     15 H3           0.2220     0.3970     2.1280 h1         1 LFR       0.063700
     16 H4          -2.6250     0.4310     1.0110 h1         1 LFR       0.074700
     17 H5          -0.6160     2.7160     0.7620 h1         1 LFR       0.078700
     18 H6C1        -3.0740     3.1000     0.3340 h1         1 LFR       0.031200
     19 H6C2        -2.9990     1.8780    -0.9430 h1         1 LFR       0.031200
     20 H1           2.9480    -0.0300    -1.3480 ho         1 LFR       0.405000
     21 H2          -0.4730    -0.9910    -1.6200 ho         1 LFR       0.427000
     22 HA          -0.6120    -1.4930     2.7140 ho         1 LFR       0.403000
     23 HB          -2.7800     1.2580     2.9970 ho         1 LFR       0.412000
     24 H6          -2.6910     4.0390    -1.7370 ho         1 LFR       0.403000
@<TRIPOS>BOND
     1     1     2 1
     2     1     7 1
     3     1    13 1
     4     1    14 1
     5     2     3 1
     6     2     8 1
     7     2    11 1
     8     3     4 1
     9     3     9 1
    10     3    15 1
    11     4     5 1
    12     4    10 1
    13     4    16 1
    14     5     6 1
    15     5    11 1
    16     5    17 1
    17     6    12 1
    18     6    18 1
    19     6    19 1
    20     7    20 1
    21     8    21 1
    22     9    22 1
    23    10    23 1
    24    12    24 1
@<TRIPOS>SUBSTRUCTURE
     1 LFR         1 TEMP              0 ****  ****    0 ROOT
