@<TRIPOS>MOLECULE
LFS
   49    51     1     0     0
SMALL
bcc


@<TRIPOS>ATOM
      1 CAA          0.0000     0.0000     0.0000 c3         1 LFS       0.005400
      2 CAB          2.0400     0.0000     1.4430 c3         1 LFS       0.005400
      3 OAC          3.6540    -5.7310    -0.7560 o          1 LFS      -0.635000
      4 CAE          6.4890    -5.6020     1.1100 cc         1 LFS       0.332200
      5 CAF          3.0670   -11.5020    -2.5840 ca         1 LFS      -0.133500
      6 CAG          3.9420   -10.5360    -4.5960 ca         1 LFS      -0.133500
      7 CAH          3.2880    -2.2300    -2.4860 ca         1 LFS      -0.107500
      8 CAI          2.1550    -3.6160    -0.8840 ca         1 LFS      -0.107500
      9 CAJ          3.3930   -10.3510    -1.8910 ca         1 LFS      -0.052000
     10 CAK          4.2680    -9.3860    -3.9010 ca         1 LFS      -0.052000
     11 CAL          2.8270    -1.1030    -1.8330 ca         1 LFS      -0.079500
     12 CAM          1.6970    -2.4860    -0.2350 ca         1 LFS      -0.079500
     13 CAN          6.1230    -6.8480     0.7550 cd         1 LFS      -0.417600
     14 CAO          6.5460    -5.6780    -1.0450 cd         1 LFS       0.212400
     15 CAP          5.8380    -8.0550    -1.4490 c3         1 LFS      -0.065700
     16 NAQ          6.7420    -4.9090    -0.0100 nc         1 LFS      -0.612000
     17 OAS          4.0510    -6.8800    -2.6130 os         1 LFS      -0.421900
     18 CAT          3.7070    -5.7480    -1.9700 c          1 LFS       0.656100
     19 CAU          3.3420   -11.5950    -3.9370 ca         1 LFS       0.116900
     20 CAV          2.9530    -3.4910    -2.0130 ca         1 LFS      -0.094400
     21 CAW          2.0320    -1.2310    -0.7090 ca         1 LFS      -0.091300
     22 CAX          3.9940    -9.2940    -2.5490 ca         1 LFS      -0.134300
     23 CAY          1.5300     0.0000     0.0000 c3         1 LFS       0.004600
     24 CAZ          4.3470    -8.0400    -1.7920 c3         1 LFS       0.244400
     25 NBA          6.1590    -6.8970    -0.6120 na         1 LFS       0.290100
     26 HAA         -0.3610     0.9670     0.3270 hc         1 LFS       0.005200
     27 HAAA        -0.3610    -0.7670     0.6740 hc         1 LFS       0.005200
     28 HAAB        -0.3610    -0.2000    -1.0020 hc         1 LFS       0.005200
     29 HAB          3.1060    -0.1900     1.4490 hc         1 LFS       0.005200
     30 HABA         1.8430     0.9640     1.8960 hc         1 LFS       0.005200
     31 HABB         1.5320    -0.7740     2.0060 hc         1 LFS       0.005200
     32 HAE          6.5650    -5.2250     2.1230 h4         1 LFS       0.000100
     33 HAG          4.1570   -10.6080    -5.6550 ha         1 LFS       0.122500
     34 HAH          3.9110    -2.1290    -3.3670 ha         1 LFS       0.121000
     35 HAI          1.8910    -4.5990    -0.5110 ha         1 LFS       0.121000
     36 HAJ          3.1780   -10.2780    -0.8320 ha         1 LFS       0.114000
     37 HAK          4.7380    -8.5570    -4.4150 ha         1 LFS       0.114000
     38 HAL          3.0880    -0.1190    -2.2020 ha         1 LFS       0.108500
     39 HAM          1.0740    -2.5830     0.6460 ha         1 LFS       0.108500
     40 HAN          5.8530    -7.6570     1.4240 h4         1 LFS       0.148000
     41 HAO          6.6730    -5.3870    -2.0810 h5         1 LFS       0.016100
     42 HAP          6.0750    -8.9660    -0.9110 h1         1 LFS       0.045200
     43 HAPA         6.4190    -8.0140    -2.3620 h1         1 LFS       0.045200
     44 HAY          1.8910     0.8840    -0.5110 hc         1 LFS       0.026700
     45 HAZ          3.7670    -7.9930    -0.8790 h1         1 LFS       0.058700
     46 NAR          3.4190    -4.6340    -2.6730 ns         1 LFS       0.006900
     47 HAF          2.5970   -12.3300    -2.0680 ha         1 LFS       0.122500
     48 FAD          3.0240   -12.7200    -4.6160 f          1 LFS      -0.125900
     49 HNAR         3.5020    -4.6360    -3.6700 hn         1 LFS       0.165500
@<TRIPOS>BOND
     1     1    23 1   
     2     1    26 1   
     3     1    27 1   
     4     1    28 1   
     5     2    23 1   
     6     2    29 1   
     7     2    30 1   
     8     2    31 1   
     9     3    18 2   
    10     4    13 2   
    11     4    16 1   
    12     4    32 1   
    13     5     9 ar  
    14     5    19 ar  
    15     5    47 1   
    16     6    10 ar  
    17     6    19 ar  
    18     6    33 1   
    19     7    11 ar  
    20     7    20 ar  
    21     7    34 1   
    22     8    12 ar  
    23     8    20 ar  
    24     8    35 1   
    25     9    22 ar  
    26     9    36 1   
    27    10    22 ar  
    28    10    37 1   
    29    11    21 ar  
    30    11    38 1   
    31    12    21 ar  
    32    12    39 1   
    33    13    25 1   
    34    13    40 1   
    35    14    16 2   
    36    14    25 1   
    37    14    41 1   
    38    15    24 1   
    39    15    25 1   
    40    15    42 1   
    41    15    43 1   
    42    17    18 1   
    43    17    24 1   
    44    18    46 1   
    45    19    48 1   
    46    20    46 1   
    47    21    23 1   
    48    22    24 1   
    49    23    44 1   
    50    24    45 1   
    51    46    49 1   
@<TRIPOS>SUBSTRUCTURE
     1 LFS         1 TEMP              0 ****  ****    0 ROOT
