@<TRIPOS>MOLECULE
LFT
   49    51     1     0     0
SMALL
bcc


@<TRIPOS>ATOM
      1 CAA          0.0000     0.0000     0.0000 c3         1 LFT       0.004900
      2 CAB          2.0400     0.0000     1.4430 c3         1 LFT       0.004900
      3 OAC          3.6540    -5.7300    -0.7570 o          1 LFT      -0.635000
      4 CAE          6.4890    -5.6010     1.1100 cc         1 LFT       0.331200
      5 CAF          3.0670   -11.5010    -2.5870 ca         1 LFT      -0.099500
      6 CAG          3.9430   -10.5350    -4.5970 ca         1 LFT      -0.099500
      7 CAH          3.2890    -2.2290    -2.4870 ca         1 LFT      -0.107500
      8 CAI          2.1560    -3.6160    -0.8850 ca         1 LFT      -0.107500
      9 CAJ          3.3940   -10.3510    -1.8920 ca         1 LFT      -0.068000
     10 CAK          4.2680    -9.3860    -3.9020 ca         1 LFT      -0.068000
     11 CAL          2.8270    -1.1030    -1.8340 ca         1 LFT      -0.079500
     12 CAM          1.6980    -2.4860    -0.2360 ca         1 LFT      -0.079500
     13 CAN          6.1230    -6.8480     0.7550 cd         1 LFT      -0.416600
     14 CAO          6.5470    -5.6770    -1.0460 cd         1 LFT       0.213400
     15 CAP          5.8390    -8.0550    -1.4510 c3         1 LFT      -0.064700
     16 NAQ          6.7420    -4.9090    -0.0110 nc         1 LFT      -0.612000
     17 OAS          4.0530    -6.8790    -2.6140 os         1 LFT      -0.420900
     18 CAT          3.7070    -5.7480    -1.9710 c          1 LFT       0.656100
     19 CAU          3.3420   -11.5940    -3.9390 ca         1 LFT      -0.026600
     20 CAV          2.9540    -3.4910    -2.0130 ca         1 LFT      -0.094400
     21 CAW          2.0330    -1.2310    -0.7100 ca         1 LFT      -0.091300
     22 CAX          3.9930    -9.2940    -2.5500 ca         1 LFT      -0.120300
     23 CAY          1.5310     0.0000     0.0000 c3         1 LFT       0.004600
     24 CAZ          4.3470    -8.0400    -1.7930 c3         1 LFT       0.243400
     25 NBA          6.1600    -6.8970    -0.6130 na         1 LFT       0.288100
     26 HAA         -0.3610     0.9670     0.3290 hc         1 LFT       0.005200
     27 HAAA        -0.3610    -0.7680     0.6730 hc         1 LFT       0.005200
     28 HAAB        -0.3610    -0.1990    -1.0020 hc         1 LFT       0.005200
     29 HAB          1.5330    -0.7750     2.0050 hc         1 LFT       0.005200
     30 HABA         1.8420     0.9640     1.8960 hc         1 LFT       0.005200
     31 HABB         3.1070    -0.1890     1.4490 hc         1 LFT       0.005200
     32 HAE          6.5660    -5.2240     2.1230 h4         1 LFT       0.000100
     33 HAG          4.1580   -10.6070    -5.6560 ha         1 LFT       0.118000
     34 HAH          3.9120    -2.1290    -3.3680 ha         1 LFT       0.121000
     35 HAI          1.8920    -4.5980    -0.5130 ha         1 LFT       0.121000
     36 HAJ          3.1790   -10.2790    -0.8330 ha         1 LFT       0.114000
     37 HAK          4.7380    -8.5560    -4.4170 ha         1 LFT       0.114000
     38 HAL          3.0880    -0.1190    -2.2030 ha         1 LFT       0.108500
     39 HAM          1.0750    -2.5830     0.6450 ha         1 LFT       0.108500
     40 HAN          5.8520    -7.6570     1.4230 h4         1 LFT       0.148000
     41 HAO          6.6740    -5.3860    -2.0820 h5         1 LFT       0.016100
     42 HAP          6.4200    -8.0120    -2.3640 h1         1 LFT       0.045200
     43 HAPA         6.0770    -8.9650    -0.9140 h1         1 LFT       0.045200
     44 HAY          1.8920     0.8840    -0.5110 hc         1 LFT       0.026700
     45 HAZ          3.7670    -7.9930    -0.8800 h1         1 LFT       0.058700
     46 NAR          3.4200    -4.6340    -2.6740 ns         1 LFT       0.005900
     47 HAF          2.5970   -12.3300    -2.0710 ha         1 LFT       0.118000
     48 ClD          2.9320   -13.0380    -4.8120 cl         1 LFT      -0.018400
     49 HNAR         3.5050    -4.6360    -3.6710 hn         1 LFT       0.165500
@<TRIPOS>BOND
     1     1    23 1   
     2     1    26 1   
     3     1    27 1   
     4     1    28 1   
     5     2    23 1   
     6     2    29 1   
     7     2    30 1   
     8     2    31 1   
     9     3    18 2   
    10     4    13 2   
    11     4    16 1   
    12     4    32 1   
    13     5     9 ar  
    14     5    19 ar  
    15     5    47 1   
    16     6    10 ar  
    17     6    19 ar  
    18     6    33 1   
    19     7    11 ar  
    20     7    20 ar  
    21     7    34 1   
    22     8    12 ar  
    23     8    20 ar  
    24     8    35 1   
    25     9    22 ar  
    26     9    36 1   
    27    10    22 ar  
    28    10    37 1   
    29    11    21 ar  
    30    11    38 1   
    31    12    21 ar  
    32    12    39 1   
    33    13    25 1   
    34    13    40 1   
    35    14    16 2   
    36    14    25 1   
    37    14    41 1   
    38    15    24 1   
    39    15    25 1   
    40    15    42 1   
    41    15    43 1   
    42    17    18 1   
    43    17    24 1   
    44    18    46 1   
    45    19    48 1   
    46    20    46 1   
    47    21    23 1   
    48    22    24 1   
    49    23    44 1   
    50    24    45 1   
    51    46    49 1   
@<TRIPOS>SUBSTRUCTURE
     1 LFT         1 TEMP              0 ****  ****    0 ROOT
