@<TRIPOS>MOLECULE
molecule
   49    51     1     0     0
SMALL
bcc


@<TRIPOS>ATOM
      1 CAA          0.0000     0.0000     0.0000 c3         1 LFT      -0.085100
      2 CAB          2.0400     0.0000     1.4430 c3         1 LFT      -0.085100
      3 OAC          3.6540    -5.7300    -0.7570 o          1 LFT      -0.579000
      4 CAE          6.4890    -5.6010     1.1100 cc         1 LFT       0.321200
      5 CAF          3.0670   -11.5010    -2.5870 ca         1 LFT      -0.123000
      6 CAG          3.9430   -10.5350    -4.5970 ca         1 LFT      -0.123000
      7 CAH          3.2890    -2.2290    -2.4870 ca         1 LFT      -0.137000
      8 CAI          2.1560    -3.6160    -0.8850 ca         1 LFT      -0.137000
      9 CAJ          3.3940   -10.3510    -1.8920 ca         1 LFT      -0.097500
     10 CAK          4.2680    -9.3860    -3.9020 ca         1 LFT      -0.097500
     11 CAL          2.8270    -1.1030    -1.8340 ca         1 LFT      -0.107000
     12 CAM          1.6980    -2.4860    -0.2360 ca         1 LFT      -0.107000
     13 CAN          6.1230    -6.8480     0.7550 cd         1 LFT      -0.264600
     14 CAO          6.5470    -5.6770    -1.0460 cd         1 LFT       0.394400
     15 CAP          5.8390    -8.0550    -1.4510 c3         1 LFT       0.029300
     16 NAQ          6.7420    -4.9090    -0.0110 nc         1 LFT      -0.688000
     17 OAS          4.0530    -6.8790    -2.6140 os         1 LFT      -0.439900
     18 CAT          3.7070    -5.7480    -1.9710 c          1 LFT       0.744100
     19 CAU          3.3420   -11.5940    -3.9390 ca         1 LFT       0.039400
     20 CAV          2.9540    -3.4910    -2.0130 ca         1 LFT       0.065600
     21 CAW          2.0330    -1.2310    -0.7100 ca         1 LFT      -0.088300
     22 CAX          3.9930    -9.2940    -2.5500 ca         1 LFT      -0.105300
     23 CAY          1.5310     0.0000     0.0000 c3         1 LFT      -0.029400
     24 CAZ          4.3470    -8.0400    -1.7930 c3         1 LFT       0.198400
     25 NBA          6.1600    -6.8970    -0.6130 na         1 LFT      -0.191900
     26 HAA         -0.3610     0.9670     0.3290 hc         1 LFT       0.036367
     27 HAAA        -0.3610    -0.7680     0.6730 hc         1 LFT       0.036367
     28 HAAB        -0.3610    -0.1990    -1.0020 hc         1 LFT       0.036367
     29 HAB          1.5330    -0.7750     2.0050 hc         1 LFT       0.036367
     30 HABA         1.8420     0.9640     1.8960 hc         1 LFT       0.036367
     31 HABB         3.1070    -0.1890     1.4490 hc         1 LFT       0.036367
     32 HAE          6.5660    -5.2240     2.1230 h4         1 LFT       0.039100
     33 HAG          4.1580   -10.6070    -5.6560 ha         1 LFT       0.149500
     34 HAH          3.9120    -2.1290    -3.3680 ha         1 LFT       0.144000
     35 HAI          1.8920    -4.5980    -0.5130 ha         1 LFT       0.144000
     36 HAJ          3.1790   -10.2790    -0.8330 ha         1 LFT       0.145000
     37 HAK          4.7380    -8.5560    -4.4170 ha         1 LFT       0.145000
     38 HAL          3.0880    -0.1190    -2.2030 ha         1 LFT       0.134500
     39 HAM          1.0750    -2.5830     0.6450 ha         1 LFT       0.134500
     40 HAN          5.8520    -7.6570     1.4230 h4         1 LFT       0.168000
     41 HAO          6.6740    -5.3860    -2.0820 h5         1 LFT       0.059100
     42 HAP          6.4200    -8.0120    -2.3640 h1         1 LFT       0.074700
     43 HAPA         6.0770    -8.9650    -0.9140 h1         1 LFT       0.074700
     44 HAY          1.8920     0.8840    -0.5110 hc         1 LFT       0.052700
     45 HAZ          3.7670    -7.9930    -0.8800 h1         1 LFT       0.093700
     46 NAR          3.4200    -4.6340    -2.6740 ns         1 LFT      -0.458100
     47 HAF          2.5970   -12.3300    -2.0710 ha         1 LFT       0.149500
     48 ClD          2.9320   -13.0380    -4.8120 cl         1 LFT      -0.101400
     49 HNAR         3.5050    -4.6360    -3.6710 hn         1 LFT       0.330500
@<TRIPOS>BOND
     1     1    23 1
     2     2    23 1
     3     3    18 2
     4    48    19 1
     5     4    13 2
     6     4    16 1
     7     5     9 ar
     8     5    19 ar
     9     6    10 ar
    10     6    19 ar
    11     7    11 ar
    12     7    20 ar
    13     8    12 ar
    14     8    20 ar
    15     9    22 ar
    16    10    22 ar
    17    11    21 ar
    18    12    21 ar
    19    13    25 1
    20    14    16 2
    21    14    25 1
    22    15    24 1
    23    15    25 1
    24    46    18 1
    25    46    20 1
    26    17    18 1
    27    17    24 1
    28    21    23 1
    29    22    24 1
    30     1    26 1
    31     1    27 1
    32     1    28 1
    33     2    29 1
    34     2    30 1
    35     2    31 1
    36     4    32 1
    37     5    47 1
    38     6    33 1
    39     7    34 1
    40     8    35 1
    41     9    36 1
    42    10    37 1
    43    11    38 1
    44    12    39 1
    45    13    40 1
    46    14    41 1
    47    15    42 1
    48    15    43 1
    49    46    49 1
    50    23    44 1
    51    24    45 1
@<TRIPOS>SUBSTRUCTURE
     1 LFT         1 TEMP              0 ****  ****    0 ROOT
