@<TRIPOS>MOLECULE
LFX
   45    48     1     0     0
SMALL
bcc


@<TRIPOS>ATOM
      1 C            0.0000     0.0000     0.0000 c          1 LFX       0.982800
      2 N           -6.8850     0.2070    -8.1500 n3         1 LFX      -0.551600
      3 O            1.2160     0.0000     0.0000 o          1 LFX      -0.873300
      4 C01         -5.5330    -1.0630    -6.5530 c3         1 LFX       0.090300
      5 N01         -4.6770     0.1150    -6.3560 nh         1 LFX      -0.370000
      6 O01         -1.9230     0.0970    -6.1390 os         1 LFX      -0.282900
      7 C02         -5.4430     1.3560    -6.5400 c3         1 LFX       0.090300
      8 N02         -0.6850     0.0110    -3.6590 na         1 LFX      -0.057800
      9 C03          0.1290    -0.0170    -4.8840 c3         1 LFX       0.068500
     10 O03         -0.6730     0.0000     1.1680 o          1 LFX      -0.873300
     11 C04         -4.0660     0.0850    -5.1010 ca         1 LFX      -0.018400
     12 C05         -2.0640     0.0360    -3.7600 ca         1 LFX      -0.025400
     13 C06         -2.6820     0.0730    -5.0080 ca         1 LFX       0.103100
     14 C07         -6.1200    -1.0340    -7.9660 c3         1 LFX       0.158800
     15 C08         -6.0280     1.3850    -7.9530 c3         1 LFX       0.158800
     16 C09         -0.6260     0.6930    -6.0100 c3         1 LFX       0.193400
     17 C10         -2.8650     0.0300    -2.6030 ca         1 LFX      -0.164600
     18 C11         -4.8520     0.0690    -3.9470 ca         1 LFX       0.014900
     19 C12         -0.0560     0.0070    -2.4720 cc         1 LFX      -0.110000
     20 C13         -4.2570     0.0430    -2.7060 ca         1 LFX      -0.056000
     21 C14          0.3970    -1.4690    -5.2860 c3         1 LFX      -0.012100
     22 C15         -2.2070     0.0130    -1.2860 c          1 LFX       0.609900
     23 C17         -0.7350     0.0060    -1.2720 cd         1 LFX      -0.233400
     24 H01         -4.9420    -1.9620    -6.4270 h1         1 LFX       0.028450
     25 H01A        -6.3380    -1.0480    -5.8280 h1         1 LFX       0.028450
     26 H02         -4.7870     2.2070    -6.4040 h1         1 LFX       0.028450
     27 H02A        -6.2480     1.3930    -5.8160 h1         1 LFX       0.028450
     28 H03          1.0680     0.4920    -4.7030 h1         1 LFX       0.050700
     29 H07         -6.7760    -1.8850    -8.1020 h1         1 LFX       0.023950
     30 H07A        -5.3160    -1.0710    -8.6910 h1         1 LFX       0.023950
     31 H08         -6.6180     2.2850    -8.0800 h1         1 LFX       0.023950
     32 H08A        -5.2230     1.3690    -8.6770 h1         1 LFX       0.023950
     33 H09         -0.7330     1.7440    -5.7690 h1         1 LFX       0.019700
     34 H09A        -0.0810     0.5810    -6.9400 h1         1 LFX       0.019700
     35 H12          1.0270     0.0030    -2.4570 h4         1 LFX       0.152000
     36 H13         -4.8670    -0.0400    -1.8140 ha         1 LFX       0.138000
     37 H14          1.2880    -1.8240    -4.7830 hc         1 LFX       0.014700
     38 H14A        -0.4480    -2.0840    -5.0020 hc         1 LFX       0.014700
     39 H14B         0.5410    -1.5260    -6.3580 hc         1 LFX       0.014700
     40 H16         -7.9810     1.1160    -6.6120 h1         1 LFX       0.006700
     41 H16A        -8.0670    -0.6510    -6.6460 h1         1 LFX       0.006700
     42 H16B        -8.9560     0.3010    -7.8430 h1         1 LFX       0.006700
     43 O02         -2.8520     0.0040    -0.2510 o          1 LFX      -0.520100
     44 F           -6.2000     0.0780    -4.0490 f          1 LFX      -0.137900
     45 C16         -8.0490     0.2460    -7.2540 c3         1 LFX       0.161100
@<TRIPOS>BOND
     1     1     3 1   
     2     1    10 1   
     3     1    23 1   
     4     2    14 1   
     5     2    15 1   
     6     2    45 1   
     7     4     5 1   
     8     4    14 1   
     9     4    24 1   
    10     4    25 1   
    11     5     7 1   
    12     5    11 1   
    13     6    13 1   
    14     6    16 1   
    15     7    15 1   
    16     7    26 1   
    17     7    27 1   
    18     8     9 1   
    19     8    12 1   
    20     8    19 1   
    21     9    16 1   
    22     9    21 1   
    23     9    28 1   
    24    11    13 ar  
    25    11    18 ar  
    26    12    13 ar  
    27    12    17 ar  
    28    14    29 1   
    29    14    30 1   
    30    15    31 1   
    31    15    32 1   
    32    16    33 1   
    33    16    34 1   
    34    17    20 ar  
    35    17    22 1   
    36    18    20 ar  
    37    18    44 1   
    38    19    23 2   
    39    19    35 1   
    40    20    36 1   
    41    21    37 1   
    42    21    38 1   
    43    21    39 1   
    44    22    23 1   
    45    22    43 2   
    46    40    45 1   
    47    41    45 1   
    48    42    45 1   
@<TRIPOS>SUBSTRUCTURE
     1 LFX         1 TEMP              0 ****  ****    0 ROOT
