@<TRIPOS>MOLECULE
LG0
   66    71     1     0     0
SMALL
bcc


@<TRIPOS>ATOM
      1 C13         0.0110    0.1600   -0.0810 cc        1 LG0     -0.170900
      2 C18        -2.5220   -0.1390   -5.3040 ca        1 LG0     -0.102500
      3 C17        -2.6560    0.9210   -7.5590 cx        1 LG0     -0.071700
      4 C16        -2.0030    0.7540   -6.2470 ca        1 LG0     -0.041300
      5 C15        -5.9760    0.1910    4.4070 c3        1 LG0      0.111700
      6 C19         2.1590    0.4270   -1.3600 c3        1 LG0     -0.029100
      7 C20         1.3180   -0.1120   -2.5250 c3        1 LG0      0.101000
      8 C21        -4.1580    1.0990   -7.6040 cx        1 LG0     -0.122400
      9 C22        -1.9050   -0.3150   -4.0690 ca        1 LG0     -0.136500
     10 C23        -2.0430    0.0820   -8.6680 c3        1 LG0      0.209800
     11 C12         1.4210    0.2780   -0.1030 cd        1 LG0     -0.154600
     12 C27         0.0670   -0.6590   -9.6430 c3        1 LG0      0.163300
     13 C1         -4.2620   -0.3580    2.8490 ca        1 LG0      0.143100
     14 C2         -3.3660    0.5430    3.4350 ca        1 LG0     -0.178500
     15 C3         -2.0860    0.6860    2.9090 ca        1 LG0     -0.060000
     16 C4         -1.6960   -0.0750    1.7910 ca        1 LG0     -0.047200
     17 C5         -2.6040   -0.9820    1.2040 ca        1 LG0     -0.060000
     18 C6         -3.8800   -1.1210    1.7280 ca        1 LG0     -0.178500
     19 N1         -0.3670    0.0560    1.2690 na        1 LG0      0.241300
     20 N6          0.6970    0.0990    2.0700 nc        1 LG0     -0.436800
     21 N5         -0.0880    0.2440   -2.4950 n         1 LG0     -0.386000
     22 C7         -0.7420    0.4130   -3.7470 ca        1 LG0      0.045600
     23 C44        -0.2270    1.3240   -4.6940 ca        1 LG0     -0.136500
     24 C14        -0.8510    1.4830   -5.9270 ca        1 LG0     -0.102500
     25 C8         -0.8180    0.2130   -1.3040 c         1 LG0      0.749100
     26 C10         1.8090    0.2340    1.2760 cd        1 LG0      0.205600
     27 O3         -2.0600    0.2660   -1.2780 o         1 LG0     -0.615500
     28 F1          3.5460   -0.7520    2.6510 f         1 LG0     -0.230633
     29 F2          4.2010    0.3730    0.9170 f         1 LG0     -0.230633
     30 F3          3.4170    1.4150    2.6500 f         1 LG0     -0.230633
     31 C9         -3.2640    2.2600   -7.9070 cx        1 LG0     -0.122400
     32 N2         -0.6610    0.4140   -8.9630 n3        1 LG0     -0.728600
     33 C25        -0.4700    1.6560   -9.7130 c3        1 LG0      0.163300
     34 C29         0.5170    1.4110  -10.8640 c3        1 LG0     -0.092400
     35 C30         0.8650   -0.0700  -10.8160 c3        1 LG0     -0.092400
     36 H18        -3.4330   -0.7100   -5.5390 ha        1 LG0      0.139000
     37 H15        -5.9460    1.2820    4.1670 h1        1 LG0      0.048033
     38 H15A       -7.0300   -0.1490    4.5690 h1        1 LG0      0.048033
     39 H15B       -5.3470   -0.0320    5.3030 h1        1 LG0      0.048033
     40 H19         3.1300   -0.1360   -1.3270 hc        1 LG0      0.077700
     41 H19A        2.4040    1.5120   -1.5240 hc        1 LG0      0.077700
     42 H20         1.7660    0.2660   -3.4880 h1        1 LG0      0.057200
     43 H20A        1.3990   -1.2390   -2.5270 h1        1 LG0      0.057200
     44 H21        -4.7190    1.0870   -6.6520 hc        1 LG0      0.073700
     45 H21A       -4.7260    0.6270   -8.4260 hc        1 LG0      0.073700
     46 H22        -2.3480   -1.0050   -3.3340 ha        1 LG0      0.142000
     47 H23        -2.0780   -0.9930   -8.3280 h1        1 LG0      0.035700
     48 H23A       -2.7030    0.1720   -9.5830 h1        1 LG0      0.035700
     49 H27        -0.6160   -1.4730  -10.0160 h1        1 LG0      0.039950
     50 H27A        0.7590   -1.1170   -8.8860 h1        1 LG0      0.039950
     51 H2         -3.6560    1.1450    4.3080 ha        1 LG0      0.152500
     52 H3         -1.3880    1.3950    3.3820 ha        1 LG0      0.156500
     53 H5         -2.3180   -1.5620    0.3120 ha        1 LG0      0.156500
     54 H6         -4.6010   -1.8170    1.2760 ha        1 LG0      0.152500
     55 H44         0.6690    1.9220   -4.4670 ha        1 LG0      0.142000
     56 H14        -0.4310    2.1830   -6.6650 ha        1 LG0      0.139000
     57 H9         -3.1840    3.0840   -7.1750 hc        1 LG0      0.073700
     58 H9A        -3.1900    2.6240   -8.9480 hc        1 LG0      0.073700
     59 H25        -0.0560    2.4150   -8.9940 h1        1 LG0      0.039950
     60 H25A       -1.4380    2.0630  -10.1170 h1        1 LG0      0.039950
     61 H29         1.4310    2.0420  -10.7340 hc        1 LG0      0.046950
     62 H29A        0.0520    1.6850  -11.8420 hc        1 LG0      0.046950
     63 H30         0.5890   -0.5800  -11.7720 hc        1 LG0      0.046950
     64 H30A        1.9600   -0.2200  -10.6550 hc        1 LG0      0.046950
     65 C11         3.2020    0.3150    1.8590 c3        1 LG0      0.635600
     66 O1         -5.5490   -0.5820    3.2900 os        1 LG0     -0.321900
@<TRIPOS>BOND
     1    1   11 2   
     2    1   19 1   
     3    1   25 1   
     4    2    4 ar  
     5    2    9 ar  
     6    2   36 1   
     7    3    4 1   
     8    3    8 1   
     9    3   10 1   
    10    3   31 1   
    11    4   24 ar  
    12    5   37 1   
    13    5   38 1   
    14    5   39 1   
    15    5   66 1   
    16    6    7 1   
    17    6   11 1   
    18    6   40 1   
    19    6   41 1   
    20    7   21 1   
    21    7   42 1   
    22    7   43 1   
    23    8   31 1   
    24    8   44 1   
    25    8   45 1   
    26    9   22 ar  
    27    9   46 1   
    28   10   32 1   
    29   10   47 1   
    30   10   48 1   
    31   11   26 1   
    32   12   32 1   
    33   12   35 1   
    34   12   49 1   
    35   12   50 1   
    36   13   14 ar  
    37   13   18 ar  
    38   13   66 1   
    39   14   15 ar  
    40   14   51 1   
    41   15   16 ar  
    42   15   52 1   
    43   16   17 ar  
    44   16   19 1   
    45   17   18 ar  
    46   17   53 1   
    47   18   54 1   
    48   19   20 1   
    49   20   26 2   
    50   21   22 1   
    51   21   25 1   
    52   22   23 ar  
    53   23   24 ar  
    54   23   55 1   
    55   24   56 1   
    56   25   27 2   
    57   26   65 1   
    58   28   65 1   
    59   29   65 1   
    60   30   65 1   
    61   31   57 1   
    62   31   58 1   
    63   32   33 1   
    64   33   34 1   
    65   33   59 1   
    66   33   60 1   
    67   34   35 1   
    68   34   61 1   
    69   34   62 1   
    70   35   63 1   
    71   35   64 1   
@<TRIPOS>SUBSTRUCTURE
     1 LG0         1 TEMP              0 ****  ****    0 ROOT
