@<TRIPOS>MOLECULE
LG1
   43    47     1     0     0
SMALL
bcc


@<TRIPOS>ATOM
      1 C05          0.0000     0.0000     0.0000 ca         1 LG1      -0.027000
      2 C06          1.3820     0.0000     0.0000 ca         1 LG1      -0.136000
      3 C01          2.0930     0.0000     1.1940 ca         1 LG1      -0.055300
      4 N14          3.4800     0.0350     1.1820 na         1 LG1       0.336900
      5 C13          4.2150     0.2250     2.3410 ca         1 LG1      -0.042300
      6 C18          5.5600     0.5540     2.3110 ca         1 LG1      -0.165000
      7 C17          6.2780     0.7110     3.4900 ca         1 LG1       0.027700
      8 C16          5.6790     0.5380     4.7200 ca         1 LG1      -0.123000
      9 C15          4.3270     0.2120     4.7800 ca         1 LG1       0.037000
     10 C19          3.6210    -0.0190     6.0450 ca         1 LG1       0.009000
     11 C20          4.2540     0.1610     7.2730 ca         1 LG1      -0.106000
     12 C21          3.5550    -0.0600     8.4400 ca         1 LG1       0.162900
     13 F30          4.1660     0.1130     9.6330 f          1 LG1      -0.101900
     14 C22          2.2240    -0.4570     8.3920 ca         1 LG1      -0.087000
     15 C23          1.5880    -0.6450     7.1990 ca         1 LG1      -0.064000
     16 C24          2.2700    -0.4470     5.9920 ca         1 LG1      -0.240300
     17 NP5          1.6820    -0.6680     4.8010 na         1 LG1       0.558900
     18 C11          2.1460    -0.2060     3.6660 ca         1 LG1      -0.016300
     19 C02          1.3840    -0.0550     2.4140 ca         1 LG1      -0.122000
     20 C03         -0.0060     0.0050     2.3930 ca         1 LG1      -0.088000
     21 C04         -0.6960     0.0190     1.1970 ca         1 LG1       0.103900
     22 F08         -2.0460     0.0410     1.1970 f          1 LG1      -0.104900
     23 C12          3.5880     0.0840     3.5890 ca         1 LG1      -0.132000
     24 C34          0.5470    -1.6010     4.7840 c3         1 LG1      -0.087400
     25 C27          7.7390     1.0720     3.4200 c3         1 LG1       0.045200
     26 C33          4.1920    -0.0970    -0.0910 c3         1 LG1      -0.035400
     27 H09         -0.5400     0.0110    -0.9390 ha         1 LG1       0.138000
     28 H10          1.9170    -0.0150    -0.9420 ha         1 LG1       0.138000
     29 H26          6.0570     0.6960     1.3590 ha         1 LG1       0.138000
     30 H28          6.2530     0.6640     5.6300 ha         1 LG1       0.136000
     31 H29          5.3160     0.3740     7.3090 ha         1 LG1       0.144000
     32 H31          1.6850    -0.6270     9.3170 ha         1 LG1       0.141000
     33 H32          0.5500    -0.9560     7.1860 ha         1 LG1       0.127000
     34 H07         -0.5550     0.0200     3.3270 ha         1 LG1       0.127000
     35 H35          0.4510    -2.0350     3.7960 h1         1 LG1       0.056033
     36 H36         -0.3620    -1.0670     5.0340 h1         1 LG1       0.056033
     37 H37          0.7150    -2.3870     5.5100 h1         1 LG1       0.056033
     38 H38          7.8630     1.9590     2.8100 hc         1 LG1       0.026367
     39 H39          8.1120     1.2660     4.4180 hc         1 LG1       0.026367
     40 H40          8.2940     0.2510     2.9800 hc         1 LG1       0.026367
     41 H41          4.3240     0.8830    -0.5340 h1         1 LG1       0.038700
     42 H42          3.6180    -0.7230    -0.7630 h1         1 LG1       0.038700
     43 H43          5.1610    -0.5480     0.0830 h1         1 LG1       0.038700
@<TRIPOS>BOND
     1     1     2 ar  
     2     1    21 ar  
     3     1    27 1   
     4     2     3 ar  
     5     2    28 1   
     6     3     4 1   
     7     3    19 ar  
     8     4     5 2   
     9     4    26 1   
    10     5     6 ar  
    11     5    23 ar  
    12     6     7 ar  
    13     6    29 1   
    14     7     8 ar  
    15     7    25 1   
    16     8     9 ar  
    17     8    30 1   
    18     9    10 ar  
    19     9    23 ar  
    20    10    11 ar  
    21    10    16 ar  
    22    11    12 ar  
    23    11    31 1   
    24    12    13 1   
    25    12    14 ar  
    26    14    15 ar  
    27    14    32 1   
    28    15    16 ar  
    29    15    33 1   
    30    16    17 1   
    31    17    18 1   
    32    17    24 1   
    33    18    19 ar  
    34    18    23 ar  
    35    19    20 ar  
    36    20    21 ar  
    37    20    34 1   
    38    21    22 1   
    39    24    35 1   
    40    24    36 1   
    41    24    37 1   
    42    25    38 1   
    43    25    39 1   
    44    25    40 1   
    45    26    41 1   
    46    26    42 1   
    47    26    43 1   
@<TRIPOS>SUBSTRUCTURE
     1 LG1         1 TEMP              0 ****  ****    0 ROOT
