@<TRIPOS>MOLECULE
molecule
   55    58     1     0     0
SMALL
bcc


@<TRIPOS>ATOM
      1 C1           0.0000     0.0000     0.0000 ca         1 LG2      -0.075300
      2 C2           1.3890     0.0000     0.0000 ca         1 LG2      -0.117000
      3 C3           2.0890     0.0000     1.1880 ca         1 LG2      -0.032300
      4 C4           1.4050    -0.0100     2.3890 ca         1 LG2      -0.060300
      5 C5           0.0250    -0.0120     2.3910 ca         1 LG2      -0.133000
      6 C6          -0.6830    -0.0100     1.1950 ca         1 LG2      -0.069300
      7 C7          -2.1870    -0.0290     1.2700 c3         1 LG2      -0.014700
      8 C8          -2.7960     0.4090    -0.0600 c3         1 LG2      -0.071400
      9 C9          -2.1570    -0.4190    -1.1810 c3         1 LG2      -0.070400
     10 C10         -0.7020     0.0190    -1.3330 c3         1 LG2      -0.016700
     11 C11          3.5960    -0.0010     1.1780 cx         1 LG2      -0.122000
     12 C12          4.2480     1.3390     1.3990 ca         1 LG2       0.422600
     13 N13          5.2510     1.4400     2.2490 nb         1 LG2      -0.732000
     14 C14          5.8590     2.5860     2.4760 ca         1 LG2       0.436200
     15 C15          5.4480     3.7480     1.8230 ca         1 LG2      -0.218900
     16 C16          4.3800     3.6740     0.9190 ca         1 LG2      -0.080000
     17 C17          3.7810     2.4450     0.7130 ca         1 LG2      -0.261300
     18 C18          6.1260     5.0340     2.0810 c          1 LG2       0.883200
     19 O19          5.7600     6.0400     1.5060 o          1 LG2      -0.833800
     20 O20          7.1510     5.0920     2.9530 o          1 LG2      -0.833800
     21 C21          4.3050    -1.2330     1.7400 cx         1 LG2      -0.123900
     22 C22          4.2940    -0.9790     0.2320 cx         1 LG2      -0.123900
     23 C23         -2.6580    -1.4450     1.5990 c3         1 LG2      -0.080600
     24 C24         -2.6480     0.9250     2.3740 c3         1 LG2      -0.080600
     25 C25         -0.6580     1.4390    -1.9050 c3         1 LG2      -0.081100
     26 C26          0.0140    -0.9330    -2.2930 c3         1 LG2      -0.081100
     27 C27          2.1620    -0.0120     3.6910 c3         1 LG2      -0.051800
     28 HC2          1.9260     0.0080    -0.9410 ha         1 LG2       0.135000
     29 HC5         -0.5110    -0.0200     3.3320 ha         1 LG2       0.127000
     30 HC81        -3.8650     0.2360    -0.0450 hc         1 LG2       0.042700
     31 HC82        -2.5940     1.4600    -0.2240 hc         1 LG2       0.042700
     32 HC91        -2.6820    -0.2230    -2.1080 hc         1 LG2       0.042700
     33 HC92        -2.1830    -1.4660    -0.9050 hc         1 LG2       0.042700
     34 HC41         6.6850     2.6270     3.1750 h4         1 LG2       0.048100
     35 HC61         4.1990     4.4870     0.2270 ha         1 LG2       0.150000
     36 HC71         3.0610     2.3210    -0.0870 ha         1 LG2       0.118000
     37 H211         5.2480    -1.0430     2.2390 hc         1 LG2       0.076450
     38 H212         3.6570    -2.0300     2.0850 hc         1 LG2       0.076450
     39 H221         5.2300    -0.6340    -0.1910 hc         1 LG2       0.076450
     40 H222         3.6390    -1.6200    -0.3450 hc         1 LG2       0.076450
     41 H231        -2.5630    -1.6200     2.6630 hc         1 LG2       0.034200
     42 H232        -3.6950    -1.5580     1.3060 hc         1 LG2       0.034200
     43 H233        -2.0510    -2.1620     1.0590 hc         1 LG2       0.034200
     44 H241        -3.6990     1.1520     2.2390 hc         1 LG2       0.034200
     45 H242        -2.0710     1.8410     2.3240 hc         1 LG2       0.034200
     46 H243        -2.5010     0.4570     3.3400 hc         1 LG2       0.034200
     47 H251        -0.7420     2.1560    -1.0970 hc         1 LG2       0.035700
     48 H252        -1.4810     1.5750    -2.5960 hc         1 LG2       0.035700
     49 H253         0.2790     1.5890    -2.4260 hc         1 LG2       0.035700
     50 H261        -0.6570    -1.2070    -3.0980 hc         1 LG2       0.035700
     51 H262         0.3190    -1.8240    -1.7580 hc         1 LG2       0.035700
     52 H263         0.8880    -0.4420    -2.7040 hc         1 LG2       0.035700
     53 H271         1.5510     0.4370     4.4640 hc         1 LG2       0.049033
     54 H272         2.4020    -1.0320     3.9670 hc         1 LG2       0.049033
     55 H273         3.0770     0.5560     3.5770 hc         1 LG2       0.049033
@<TRIPOS>BOND
     1     1     2 ar
     2     1     6 ar
     3     1    10 1
     4     2     3 ar
     5     2    28 1
     6     3     4 ar
     7     3    11 1
     8     4     5 ar
     9     4    27 1
    10     5     6 ar
    11     5    29 1
    12     6     7 1
    13     7     8 1
    14     7    23 1
    15     7    24 1
    16     8     9 1
    17     8    30 1
    18     8    31 1
    19     9    10 1
    20     9    32 1
    21     9    33 1
    22    10    25 1
    23    10    26 1
    24    11    12 1
    25    11    21 1
    26    11    22 1
    27    12    13 ar
    28    12    17 ar
    29    13    14 ar
    30    14    15 ar
    31    14    34 1
    32    15    16 ar
    33    15    18 1
    34    16    17 ar
    35    16    35 1
    36    17    36 1
    37    18    19 1
    38    18    20 1
    39    21    22 1
    40    21    37 1
    41    21    38 1
    42    22    39 1
    43    22    40 1
    44    23    41 1
    45    23    42 1
    46    23    43 1
    47    24    44 1
    48    24    45 1
    49    24    46 1
    50    25    47 1
    51    25    48 1
    52    25    49 1
    53    26    50 1
    54    26    51 1
    55    26    52 1
    56    27    53 1
    57    27    54 1
    58    27    55 1
@<TRIPOS>SUBSTRUCTURE
     1 LG2         1 TEMP              0 ****  ****    0 ROOT
