@<TRIPOS>MOLECULE
LG2
   55    58     1     0     0
SMALL
bcc


@<TRIPOS>ATOM
      1 C1          0.0110   -0.0150    0.0020 ca        1 LG2     -0.074300
      2 C2          1.4130   -0.0080    0.0040 ca        1 LG2     -0.121000
      3 C3          2.1550   -0.0440    1.1870 ca        1 LG2     -0.033300
      4 C4          1.4730   -0.0760    2.4170 ca        1 LG2     -0.048300
      5 C5          0.0770   -0.0710    2.4150 ca        1 LG2     -0.140000
      6 C6         -0.6680   -0.0260    1.2300 ca        1 LG2     -0.064300
      7 C7         -2.1700    0.0060    1.3330 c3        1 LG2     -0.001700
      8 C8         -2.8090    0.3920   -0.0020 c3        1 LG2     -0.068400
      9 C9         -2.1810   -0.3280   -1.1690 c3        1 LG2     -0.067400
     10 C10        -0.6970    0.0060   -1.3260 c3        1 LG2     -0.000700
     11 C11         3.6330   -0.0370    1.1160 cx        1 LG2     -0.107000
     12 C12         4.2400    1.2970    1.4020 ca        1 LG2      0.393600
     13 N13         5.0000    1.4550    2.5170 nb        1 LG2     -0.700000
     14 C14         5.5380    2.6680    2.7280 ca        1 LG2      0.402200
     15 C15         5.3630    3.7770    1.8730 ca        1 LG2     -0.225900
     16 C16         4.5740    3.5980    0.7350 ca        1 LG2     -0.084000
     17 C17         4.0020    2.3480    0.4910 ca        1 LG2     -0.255300
     18 C18         6.0160    5.1120    2.1880 c         1 LG2      0.912200
     19 O19         5.8350    6.0610    1.3750 o         1 LG2     -0.827300
     20 O20         6.7050    5.1940    3.2430 o         1 LG2     -0.827300
     21 C21         4.3800   -1.2950    1.5080 cx        1 LG2     -0.119400
     22 C22         4.3180   -0.8930    0.0690 cx        1 LG2     -0.119400
     23 C23        -2.6750   -1.3650    1.7720 c3        1 LG2     -0.083600
     24 C24        -2.6100    1.0430    2.3660 c3        1 LG2     -0.083600
     25 C25        -0.5400    1.3870   -1.9570 c3        1 LG2     -0.084100
     26 C26        -0.0930   -1.0330   -2.2700 c3        1 LG2     -0.084100
     27 C27         2.2020   -0.0830    3.7070 c3        1 LG2     -0.057800
     28 HC2         1.9560    0.0380   -0.9530 ha        1 LG2      0.132000
     29 HC5        -0.4500   -0.0980    3.3820 ha        1 LG2      0.124000
     30 HC81       -3.9060    0.1570    0.0370 hc        1 LG2      0.039200
     31 HC82       -2.7090    1.5010   -0.1480 hc        1 LG2      0.039200
     32 HC91       -2.2950   -1.4360   -1.0310 hc        1 LG2      0.036700
     33 HC92       -2.7190   -0.0500   -2.1130 hc        1 LG2      0.036700
     34 HC41        6.1570    2.7890    3.6380 h4        1 LG2      0.039100
     35 HC61        4.4200    4.4490    0.0540 ha        1 LG2      0.155000
     36 HC71        3.3700    2.1740   -0.3890 ha        1 LG2      0.119000
     37 H211        5.3320   -1.1980    2.0590 hc        1 LG2      0.070450
     38 H212        3.7930   -2.1690    1.8440 hc        1 LG2      0.070450
     39 H221        5.2260   -0.4950   -0.4190 hc        1 LG2      0.070450
     40 H222        3.6940   -1.4820   -0.6270 hc        1 LG2      0.070450
     41 H231       -3.7840   -1.3410    1.9040 hc        1 LG2      0.033867
     42 H232       -2.2050   -1.6530    2.7430 hc        1 LG2      0.033867
     43 H233       -2.4200   -2.1400    1.0120 hc        1 LG2      0.033867
     44 H241       -2.3830    0.6960    3.4020 hc        1 LG2      0.033867
     45 H242       -2.0840    2.0120    2.1910 hc        1 LG2      0.033867
     46 H243       -3.7120    1.2110    2.2880 hc        1 LG2      0.033867
     47 H251        0.5430    1.6370   -2.0660 hc        1 LG2      0.034867
     48 H252       -1.0160    1.4040   -2.9670 hc        1 LG2      0.034867
     49 H253       -1.0190    2.1670   -1.3190 hc        1 LG2      0.034867
     50 H261        0.9250   -0.7230   -2.6050 hc        1 LG2      0.034867
     51 H262       -0.0150   -2.0220   -1.7600 hc        1 LG2      0.034867
     52 H263       -0.7390   -1.1450   -3.1740 hc        1 LG2      0.034867
     53 H271        2.5330    0.9570    3.9580 hc        1 LG2      0.051367
     54 H272        1.5550   -0.4620    4.5350 hc        1 LG2      0.051367
     55 H273        3.1180   -0.7220    3.6420 hc        1 LG2      0.051367
@<TRIPOS>BOND
     1    1    2 ar  
     2    1    6 ar  
     3    1   10 1   
     4    2    3 ar  
     5    2   28 1   
     6    3    4 ar  
     7    3   11 1   
     8    4    5 ar  
     9    4   27 1   
    10    5    6 ar  
    11    5   29 1   
    12    6    7 1   
    13    7    8 1   
    14    7   23 1   
    15    7   24 1   
    16    8    9 1   
    17    8   30 1   
    18    8   31 1   
    19    9   10 1   
    20    9   32 1   
    21    9   33 1   
    22   10   25 1   
    23   10   26 1   
    24   11   12 1   
    25   11   21 1   
    26   11   22 1   
    27   12   13 ar  
    28   12   17 ar  
    29   13   14 ar  
    30   14   15 ar  
    31   14   34 1   
    32   15   16 ar  
    33   15   18 1   
    34   16   17 ar  
    35   16   35 1   
    36   17   36 1   
    37   18   19 1   
    38   18   20 1   
    39   21   22 1   
    40   21   37 1   
    41   21   38 1   
    42   22   39 1   
    43   22   40 1   
    44   23   41 1   
    45   23   42 1   
    46   23   43 1   
    47   24   44 1   
    48   24   45 1   
    49   24   46 1   
    50   25   47 1   
    51   25   48 1   
    52   25   49 1   
    53   26   50 1   
    54   26   51 1   
    55   26   52 1   
    56   27   53 1   
    57   27   54 1   
    58   27   55 1   
@<TRIPOS>SUBSTRUCTURE
     1 LG2         1 TEMP              0 ****  ****    0 ROOT
