@<TRIPOS>MOLECULE
LG3
   14    14     1     0     0
SMALL
bcc


@<TRIPOS>ATOM
      1 C2           0.0000     0.0000     0.0000 ca         1 LG3       0.723900
      2 N3           1.3250     0.0000     0.0000 nb         1 LG3      -0.725000
      3 C4           2.0020     0.0000     1.1430 ca         1 LG3       0.579200
      4 C5           1.2960     0.0120     2.3490 ca         1 LG3      -0.443600
      5 C6          -0.0840     0.0170     2.3040 ca         1 LG3       0.503200
      6 N1          -0.6950     0.0110     1.1280 nb         1 LG3      -0.718000
      7 N7          -0.6750    -0.0050    -1.2090 nv         1 LG3      -0.503500
      8 N8           3.3870    -0.0050     1.1400 nv         1 LG3      -0.623500
      9 H5           1.8190     0.0140     3.2970 ha         1 LG3       0.127000
     10 H6          -0.6610     0.0260     3.2200 h4         1 LG3      -0.022900
     11 HN71        -1.6730    -0.0720    -1.2240 hn         1 LG3       0.274300
     12 HN72        -0.1630     0.0360    -2.0680 hn         1 LG3       0.274300
     13 HN81         3.8830    -0.7930     0.7710 hn         1 LG3       0.276800
     14 HN82         3.8910     0.7970     1.4610 hn         1 LG3       0.276800
@<TRIPOS>BOND
     1     1     2 ar  
     2     1     6 ar  
     3     1     7 1   
     4     2     3 ar  
     5     3     4 ar  
     6     3     8 1   
     7     4     5 ar  
     8     4     9 1   
     9     5     6 ar  
    10     5    10 1   
    11     7    11 1   
    12     7    12 1   
    13     8    13 1   
    14     8    14 1   
@<TRIPOS>SUBSTRUCTURE
     1 LG3         1 TEMP              0 ****  ****    0 ROOT
