@<TRIPOS>MOLECULE
LG4
   16    16     1     0     0
SMALL
bcc


@<TRIPOS>ATOM
      1 N1           0.0000     0.0000     0.0000 nb         1 LG4      -0.653000
      2 C2           1.3200     0.0000     0.0000 ca         1 LG4       0.456200
      3 C3           2.0270     0.0000     1.1850 ca         1 LG4      -0.283600
      4 C4           1.3370     0.0130     2.3900 ca         1 LG4      -0.016000
      5 C5          -0.0460     0.0200     2.3580 ca         1 LG4      -0.303300
      6 C6          -0.6940     0.0120     1.1270 ca         1 LG4       0.505200
      7 N7          -2.0830     0.0190     1.0800 nv         1 LG4      -0.535500
      8 C8           3.5350    -0.0070     1.1710 c3         1 LG4       0.083200
      9 H2           1.8550    -0.0100    -0.9420 h4         1 LG4      -0.022900
     10 H4           1.8700     0.0160     3.3330 ha         1 LG4       0.105000
     11 H5          -0.6160     0.0300     3.2800 ha         1 LG4       0.115000
     12 HN71        -2.6130     0.0550     1.9290 hn         1 LG4       0.269800
     13 HN72        -2.5540    -0.0180     0.1980 hn         1 LG4       0.269800
     14 H81          3.8980     0.9800     0.9120 hc         1 LG4       0.003367
     15 H82          3.8860    -0.7240     0.4400 hc         1 LG4       0.003367
     16 H83          3.9040    -0.2820     2.1520 hc         1 LG4       0.003367
@<TRIPOS>BOND
     1     1     2 ar  
     2     1     6 ar  
     3     2     3 ar  
     4     2     9 1   
     5     3     4 ar  
     6     3     8 1   
     7     4     5 ar  
     8     4    10 1   
     9     5     6 ar  
    10     5    11 1   
    11     6     7 1   
    12     7    12 1   
    13     7    13 1   
    14     8    14 1   
    15     8    15 1   
    16     8    16 1   
@<TRIPOS>SUBSTRUCTURE
     1 LG4         1 TEMP              0 ****  ****    0 ROOT
