@<TRIPOS>MOLECULE
molecule
   19    19     1     0     0
SMALL
bcc


@<TRIPOS>ATOM
      1 C1           0.0000     0.0000     0.0000 c2         1 LG5      -0.138200
      2 C2           1.5080     0.0000     0.0000 c3         1 LG5       0.260000
      3 N3           1.9860     0.0000     1.3880 nh         1 LG5      -0.691400
      4 C4           1.3760    -0.8570     2.3060 c2         1 LG5       0.189000
      5 C5           0.0660    -1.1390     2.1450 ce         1 LG5      -0.240000
      6 C6          -0.6660    -0.5430     1.0150 ce         1 LG5      -0.133000
      7 C7           3.0860     0.8780     1.8000 c3         1 LG5       0.219100
      8 N8          -0.5910    -1.9970     3.0460 nz         1 LG5      -0.633400
      9 H1          -0.5410     0.4280    -0.8350 ha         1 LG5       0.170000
     10 H21          1.8690     0.8870    -0.5070 h1         1 LG5       0.078700
     11 H22          1.8690    -0.8870    -0.5070 h1         1 LG5       0.078700
     12 H4           1.9830    -1.4610     2.9690 h4         1 LG5       0.161000
     13 H6          -1.7490    -0.5500     1.0100 ha         1 LG5       0.146000
     14 H71          2.7330     1.9010     1.8470 h1         1 LG5       0.061033
     15 H72          3.4430     0.5740     2.7770 h1         1 LG5       0.061033
     16 H73          3.8930     0.8060     1.0820 h1         1 LG5       0.061033
     17 HN81        -1.5650    -2.0370     2.8180 hn         1 LG5       0.449800
     18 HN82        -0.1960    -2.9140     2.9820 hn         1 LG5       0.449800
     19 H83         -0.4810    -1.6500     3.9780 hn         1 LG5       0.449800
@<TRIPOS>BOND
     1     1     2 1
     2     1     6 2
     3     1     9 1
     4     2     3 1
     5     2    10 1
     6     2    11 1
     7     3     4 1
     8     3     7 1
     9     4     5 2
    10     4    12 1
    11     5     6 1
    12     5     8 1
    13     6    13 1
    14     7    14 1
    15     7    15 1
    16     7    16 1
    17     8    17 1
    18     8    18 1
    19    19     8 1
@<TRIPOS>SUBSTRUCTURE
     1 LG5         1 TEMP              0 ****  ****    0 ROOT
