@<TRIPOS>MOLECULE
LG6
   27    26     1     0     0
SMALL
bcc


@<TRIPOS>ATOM
      1 C1          1.5060   -0.0320    0.0190 c3        1 LG6     -0.006900
      2 O2A        -0.3880   -0.4640    1.4480 o         1 LG6     -0.861300
      3 C2         -0.0120   -0.1630    0.2750 c         1 LG6      0.882600
      4 O2B        -0.8230    0.0520   -0.6750 o         1 LG6     -0.861300
      5 O1          2.2110   -0.0100    1.2500 oh        1 LG6     -0.623800
      6 C3          2.0520   -1.1580   -0.8840 c3        1 LG6      0.114100
      7 O3          1.4040   -1.1600   -2.1480 oh        1 LG6     -0.625800
      8 C4          3.5680   -0.9880   -1.1470 c3        1 LG6      0.135100
      9 C5          4.2510   -2.3020   -1.5970 c3        1 LG6      0.101100
     10 O4          3.7690    0.0620   -2.0770 oh        1 LG6     -0.622800
     11 C6          5.5620   -2.5510   -0.8100 c3        1 LG6      0.199400
     12 O5          4.4810   -2.2330   -2.9900 oh        1 LG6     -0.685800
     13 P           7.6030   -3.7830   -1.9090 p5        1 LG6      1.323900
     14 O6          6.0790   -3.7920   -1.0930 os        1 LG6     -0.575200
     15 O1P         8.4730   -2.9570   -1.0000 o         1 LG6     -0.933167
     16 O2P         7.9530   -5.2420   -2.0090 o         1 LG6     -0.933167
     17 O3P         7.2020   -3.1040   -3.2000 o         1 LG6     -0.933167
     18 H1          1.7250    0.9550   -0.4720 h1        1 LG6      0.062700
     19 HO1         1.6970   -0.5480    1.8710 ho        1 LG6      0.408000
     20 H3          1.8670   -2.1470   -0.3810 h1        1 LG6      0.024700
     21 HO3         0.4920   -0.8680   -2.0060 ho        1 LG6      0.420000
     22 H4          4.0380   -0.6190   -0.1910 h1        1 LG6      0.067700
     23 H5          3.5470   -3.1620   -1.4180 h1        1 LG6      0.018700
     24 HO4         3.6190   -0.3190   -2.9540 ho        1 LG6      0.420000
     25 H61         6.3010   -1.7380   -1.0600 h1        1 LG6     -0.003800
     26 H62         5.3060   -2.4880    0.2890 h1        1 LG6     -0.003800
     27 HO5         5.4120   -2.5370   -3.1500 ho        1 LG6      0.494000
@<TRIPOS>BOND
     1    1    3 1   
     2    1    5 1   
     3    1    6 1   
     4    1   18 1   
     5    2    3 1   
     6    3    4 1   
     7    5   19 1   
     8    6    7 1   
     9    6    8 1   
    10    6   20 1   
    11    7   21 1   
    12    8    9 1   
    13    8   10 1   
    14    8   22 1   
    15    9   11 1   
    16    9   12 1   
    17    9   23 1   
    18   10   24 1   
    19   11   14 1   
    20   11   25 1   
    21   11   26 1   
    22   12   27 1   
    23   13   14 1   
    24   13   15 1   
    25   13   16 1   
    26   13   17 1   
@<TRIPOS>SUBSTRUCTURE
     1 LG6         1 TEMP              0 ****  ****    0 ROOT
