@<TRIPOS>MOLECULE
molecule
   27    26     1     0     0
SMALL
bcc


@<TRIPOS>ATOM
      1 C1           1.5060     0.0000     0.0000 c3         1 LG6       0.014100
      2 O2A         -0.6040     0.0000     1.0460 o          1 LG6      -0.862300
      3 C2           0.0000     0.0000     0.0000 c          1 LG6       0.869600
      4 O2B         -0.6720     0.0000    -1.1620 o          1 LG6      -0.862300
      5 O1           1.9830     0.0000     1.3470 oh         1 LG6      -0.620800
      6 C3           2.0180    -1.2480    -0.7210 c3         1 LG6       0.172100
      7 O3           1.5410    -1.2470    -2.0680 oh         1 LG6      -0.547800
      8 C4           3.5470    -1.2480    -0.7220 c3         1 LG6       0.143100
      9 C5           4.0580    -2.4960    -1.4430 c3         1 LG6       0.133100
     10 O4           4.0230    -0.0810    -1.3950 oh         1 LG6      -0.574800
     11 C6           5.5870    -2.4950    -1.4430 c3         1 LG6       0.133400
     12 O5           3.5810    -2.4940    -2.7900 oh         1 LG6      -0.578800
     13 P            7.6720    -3.5960    -2.0810 p5         1 LG6       1.177900
     14 O6           6.0650    -3.6610    -2.1170 os         1 LG6      -0.554200
     15 O1P          8.1320    -3.5780    -0.6740 o          1 LG6      -0.924167
     16 O2P          8.2800    -4.8870    -2.8260 o          1 LG6      -0.924167
     17 O3P          8.1720    -2.2610    -2.8260 o          1 LG6      -0.924167
     18 H1           1.8670     0.8850    -0.5100 h1         1 LG6       0.042700
     19 HO1          1.9240     0.8720     1.7010 ho         1 LG6       0.378000
     20 H3           1.6570    -2.1330    -0.2110 h1         1 LG6       0.024700
     21 HO3          0.8570    -1.8890    -2.1600 ho         1 LG6       0.386000
     22 H4           3.9080    -1.2490     0.3000 h1         1 LG6       0.040700
     23 H5           3.6970    -3.3810    -0.9330 h1         1 LG6       0.008700
     24 HO4          4.5850     0.4090    -0.8170 ho         1 LG6       0.375000
     25 H61          5.9490    -2.4950    -0.4220 h1         1 LG6       0.046200
     26 H62          5.9480    -1.6100    -1.9540 h1         1 LG6       0.046200
     27 HO5          3.5060    -3.3820    -3.0980 ho         1 LG6       0.382000
@<TRIPOS>BOND
     1     1     3 1
     2     1     5 1
     3     1     6 1
     4     1    18 1
     5     2     3 1
     6     3     4 1
     7     5    19 1
     8     6     7 1
     9     6     8 1
    10     6    20 1
    11     7    21 1
    12     8     9 1
    13     8    10 1
    14     8    22 1
    15     9    11 1
    16     9    12 1
    17     9    23 1
    18    10    24 1
    19    11    14 1
    20    11    25 1
    21    11    26 1
    22    12    27 1
    23    13    14 1
    24    13    15 1
    25    13    16 1
    26    13    17 1
@<TRIPOS>SUBSTRUCTURE
     1 LG6         1 TEMP              0 ****  ****    0 ROOT
