@<TRIPOS>MOLECULE
molecule
   36    39     1     0     0
SMALL
bcc


@<TRIPOS>ATOM
      1 C13          0.0000     0.0000     0.0000 ca         1 LG7      -0.125000
      2 C18          3.4940     0.0020     3.6610 ca         1 LG7      -0.070000
      3 C17          2.0990     0.0010     3.6530 ca         1 LG7      -0.118000
      4 C16          1.3890     0.0010     2.4410 ca         1 LG7      -0.013000
      5 C15         -0.0150     0.0010     2.4140 ca         1 LG7       0.007000
      6 C19          4.1980     0.0010     2.4600 ca         1 LG7      -0.131000
      7 C20          3.5090     0.0000     1.2460 ca         1 LG7      -0.131000
      8 C21          2.1050     0.0000     1.2200 ca         1 LG7      -0.036000
      9 C22         -0.8060     0.0010     3.6120 cg         1 LG7       0.232800
     10 C12          1.4000     0.0000     0.0000 ca         1 LG7       0.087600
     11 O1           5.2800    -1.1070    -2.4660 oh         1 LG7      -0.564800
     12 C2           4.4830    -1.0460    -3.6420 c3         1 LG7       0.107100
     13 C3           4.9030     0.1660    -4.4940 c3         1 LG7      -0.164400
     14 C4           4.1770     1.3500    -3.8420 c3         1 LG7       0.122000
     15 N5           3.0890     0.7200    -3.1200 n          1 LG7      -0.505800
     16 C6           3.0450    -0.7020    -3.3000 c3         1 LG7       0.001700
     17 C7           2.4470    -1.1380    -1.9790 c          1 LG7       0.720500
     18 O8           2.3070    -2.3220    -1.7010 o          1 LG7      -0.565500
     19 N9           2.0690     0.0000    -1.2650 n          1 LG7      -0.435600
     20 C10          2.5210     1.1530    -1.9240 c          1 LG7       0.837500
     21 O11          2.5510     2.3090    -1.5210 o          1 LG7      -0.588500
     22 C14         -0.7030     0.0010     1.2010 ca         1 LG7      -0.080000
     23 N23         -1.4580     0.0100     4.5660 n1         1 LG7      -0.358800
     24 H13         -0.4970    -0.1940    -0.9430 ha         1 LG7       0.148000
     25 H18          4.0710     0.2730     4.5370 ha         1 LG7       0.140000
     26 H17          1.3880     0.2860     4.4200 ha         1 LG7       0.150000
     27 H19          5.1950     0.0420     2.0390 ha         1 LG7       0.156000
     28 H20          3.9720    -0.1600     0.2800 ha         1 LG7       0.144000
     29 HO1          5.7440    -1.8770    -2.7500 ho         1 LG7       0.405000
     30 H2           4.5400    -1.9640    -4.2140 h1         1 LG7       0.063700
     31 H31          5.9050     0.3350    -4.1190 hc         1 LG7       0.073200
     32 H32          4.7920    -0.1030    -5.5370 hc         1 LG7       0.073200
     33 H41          4.1380     2.0090    -4.7010 h1         1 LG7       0.086200
     34 H42          4.8530     1.3890    -2.9960 h1         1 LG7       0.086200
     35 H6           2.3860    -0.9570    -4.1210 h1         1 LG7       0.097700
     36 H14         -1.7790    -0.0430     1.0800 ha         1 LG7       0.150000
@<TRIPOS>BOND
     1     1    22 ar
     2     1    10 ar
     3     1    24 1
     4     2     3 ar
     5     2     6 ar
     6     2    25 1
     7     3     4 ar
     8     3    26 1
     9     4     5 ar
    10     4     8 ar
    11     5    22 ar
    12     5     9 1
    13     6     7 ar
    14     6    27 1
    15     7     8 ar
    16     7    28 1
    17     8    10 ar
    18     9    23 3
    19    10    19 1
    20    11    12 1
    21    11    29 1
    22    12    13 1
    23    12    16 1
    24    12    30 1
    25    13    14 1
    26    13    31 1
    27    13    32 1
    28    14    15 1
    29    14    33 1
    30    14    34 1
    31    15    20 1
    32    15    16 1
    33    16    17 1
    34    16    35 1
    35    17    19 1
    36    17    18 2
    37    19    20 1
    38    20    21 2
    39    22    36 1
@<TRIPOS>SUBSTRUCTURE
     1 LG7         1 TEMP              0 ****  ****    0 ROOT
