@<TRIPOS>MOLECULE
LG8
   62    75     1     0     0
SMALL
bcc


@<TRIPOS>ATOM
      1 CBD          0.0000     0.0000     0.0000 c3         1 LG8      -0.118000
      2 CBB          1.5280     0.0000     0.0000 c3         1 LG8      -0.170000
      3 NAW          2.0200     0.0000     1.3830 na         1 LG8       0.648000
      4 CAV          1.3760     0.2620     2.4740 c2         1 LG8      -0.267000
      5 CAX          3.3720    -0.2600     1.7210 ca         1 LG8      -0.310000
      6 CAY          4.4180    -0.5580     0.8660 ca         1 LG8      -0.001000
      7 CAZ          5.6740    -0.7770     1.4390 ca         1 LG8      -0.058000
      8 CAP          5.8610    -0.6930     2.8320 ca         1 LG8       0.015000
      9 CAO          4.7960    -0.3880     3.6840 ca         1 LG8      -0.074000
     10 CAN          3.5570    -0.1720     3.1140 ca         1 LG8      -0.031000
     11 CAM          2.2480     0.1660     3.6620 c2         1 LG8       0.012000
     12 CAH          1.8820     0.3480     4.9300 c2         1 LG8       0.004000
     13 CAE          2.8390     0.2190     6.0650 c2         1 LG8       0.290000
     14 OAF          4.0220    -0.0560     5.9870 o          1 LG8      -0.277000
     15 NAD          2.0860     0.4770     7.1990 ns         1 LG8       0.057000
     16 CAC          0.7510     0.7610     6.9640 c2         1 LG8       0.305000
     17 OAB         -0.1220     1.0200     7.7720 o          1 LG8      -0.272000
     18 CAG          0.5950     0.6830     5.4840 c2         1 LG8      -0.151000
     19 CAL         -0.5730     0.9000     4.8760 c2         1 LG8       0.107000
     20 CAU         -0.7770     0.8320     3.4170 DU         1 LG8      -0.084000
     21 CAK         -1.8800     1.2370     5.4150 ca         1 LG8      -0.128000
     22 CAJ         -2.3570     1.4440     6.6950 ca         1 LG8      -0.011000
     23 CAI         -3.7110     1.7620     6.8400 ca         1 LG8      -0.070000
     24 CAQ         -4.5570     1.8660     5.7180 ca         1 LG8      -0.002000
     25 CAR         -4.0690     1.6550     4.4250 ca         1 LG8      -0.080000
     26 CAS         -2.7280     1.3420     4.2960 ca         1 LG8      -0.131000
     27 NAT         -2.0050     1.0860     3.1020 na         1 LG8       0.094000
     28 CBA         -2.6330     1.1250     1.7830 DU         1 LG8       0.284000
     29 CBF         -0.5630     0.9800     1.0410 c3         1 LG8      -0.129000
     30 CBG         -2.0870     1.0280     0.9810 DU         1 LG8       0.286000
     31 NBH         -2.5070     1.4180    -0.3240 n3         1 LG8      -0.034000
     32 C6          -0.0880     0.5700     2.4430 DU         1 LG8       0.422000
     33 CBI         -3.9780     1.4210    -0.4490 c3         1 LG8      -0.102500
     34 CBJ         -1.9910     2.7510    -0.6910 c3         1 LG8      -0.102500
     35 HBD1        -0.3520     0.2890    -0.9830 hc         1 LG8       0.112000
     36 HBD2        -0.3520    -0.9990     0.2290 hc         1 LG8       0.112000
     37 HBB1         1.8870    -0.8860    -0.5090 h1         1 LG8       0.130000
     38 HBB2         1.8870     0.8860    -0.5090 h1         1 LG8       0.130000
     39 HBF         -0.1750     1.9680     0.8250 hc         1 LG8       0.132000
     40 H6C1        -0.2890     1.3820     3.1320 DU         1 LG8       0.165000
     41 H6C2        -0.6370    -0.3090     2.7560 DU         1 LG8       0.526000
     42 HAY          4.2690    -0.6210    -0.2050 ha         1 LG8       0.129000
     43 HAZ          6.5160    -1.0150     0.8010 ha         1 LG8       0.143000
     44 HAP          6.8460    -0.8680     3.2490 ha         1 LG8       0.140000
     45 HAO          4.9390    -0.3230     4.7560 ha         1 LG8       0.214000
     46 HAD          2.4780     0.4590     8.1190 hn         1 LG8       0.140000
     47 HAU         -0.1990     0.1350     2.8230 DU         1 LG8      -0.542000
     48 HAJ         -1.7050     1.3640     7.5560 ha         1 LG8       0.195000
     49 HAI         -4.1160     1.9300     7.8300 ha         1 LG8       0.140000
     50 HAQ         -5.6020     2.1130     5.8600 ha         1 LG8       0.134000
     51 HAR         -4.7160     1.7340     3.5600 ha         1 LG8       0.127000
     52 HBA1        -3.5390     1.7160     1.8320 ha         1 LG8      -0.112500
     53 HBA2        -1.9490     1.5720     1.0710 ha         1 LG8      -0.112500
     54 HBA3        -2.8760     0.1170     1.4690 DU         1 LG8       0.045500
     55 HBG1        -2.4870     0.0470     1.2090 DU         1 LG8       0.045500
     56 HBG2        -2.4540     1.7450     1.7060 ha         1 LG8      -0.282000
     57 HBJ1        -0.9260     2.6870    -0.8760 h1         1 LG8       0.062167
     58 HBJ2        -2.4930     3.0980    -1.5870 h1         1 LG8       0.062167
     59 HBJ3        -2.1770     3.4460     0.1190 h1         1 LG8       0.062167
     60 HBI1        -4.3690     0.4620    -0.1330 h1         1 LG8       0.062167
     61 HBI2        -4.3920     2.2030     0.1750 h1         1 LG8       0.062167
     62 HBI3        -4.2520     1.6000    -1.4820 h1         1 LG8       0.062167
@<TRIPOS>BOND
     1     1     2 1   
     2     1    29 1   
     3     1    35 1   
     4     1    36 1   
     5     2     3 1   
     6     2    37 1   
     7     2    38 1   
     8     3     4 1   
     9     3     5 1   
    10     4    11 1   
    11     4    32 1   
    12     5     6 1   
    13     5    10 1   
    14     6     7 1   
    15     6    42 1   
    16     7     8 1   
    17     7    43 1   
    18     8     9 1   
    19     8    44 1   
    20     9    10 1   
    21     9    45 1   
    22    10    11 1   
    23    11    12 1   
    24    12    13 1   
    25    12    18 1   
    26    13    14 1   
    27    13    15 1   
    28    15    16 1   
    29    15    46 1   
    30    16    17 1   
    31    16    18 1   
    32    18    19 1   
    33    19    20 1   
    34    19    21 1   
    35    20    27 1   
    36    20    32 1   
    37    20    40 1   
    38    20    47 1   
    39    21    22 1   
    40    21    26 1   
    41    22    23 1   
    42    22    48 1   
    43    23    24 1   
    44    23    49 1   
    45    24    25 1   
    46    24    50 1   
    47    25    26 1   
    48    25    51 1   
    49    26    27 1   
    50    27    28 1   
    51    28    30 1   
    52    28    52 1   
    53    28    53 1   
    54    28    54 1   
    55    28    55 1   
    56    29    30 1   
    57    29    32 1   
    58    29    39 1   
    59    30    31 1   
    60    30    54 1   
    61    30    55 1   
    62    30    56 1   
    63    31    33 1   
    64    31    34 1   
    65    32    40 1   
    66    32    41 1   
    67    32    47 1   
    68    33    60 1   
    69    33    61 1   
    70    33    62 1   
    71    34    57 1   
    72    34    58 1   
    73    34    59 1   
    74    41    47 1   
    75    54    55 1   
@<TRIPOS>SUBSTRUCTURE
     1 LG8         1 TEMP              0 ****  ****    0 ROOT
