@<TRIPOS>MOLECULE
molecule
   62    67     1     0     0
SMALL
bcc


@<TRIPOS>ATOM
      1 CBD          0.0000     0.0000     0.0000 c3         1 LG8      -0.104400
      2 CBB          1.5280     0.0000     0.0000 c3         1 LG8      -0.002700
      3 NAW          2.0200     0.0000     1.3830 na         1 LG8       0.152600
      4 CAV          1.3760     0.2620     2.4740 cc         1 LG8      -0.105300
      5 CAX          3.3720    -0.2600     1.7210 ca         1 LG8      -0.130200
      6 CAY          4.4180    -0.5580     0.8660 ca         1 LG8      -0.066000
      7 CAZ          5.6740    -0.7770     1.4390 ca         1 LG8      -0.084000
      8 CAP          5.8610    -0.6930     2.8320 ca         1 LG8      -0.041000
      9 CAO          4.7960    -0.3880     3.6840 ca         1 LG8      -0.084000
     10 CAN          3.5570    -0.1720     3.1140 ca         1 LG8      -0.039800
     11 CAM          2.2480     0.1660     3.6620 cd         1 LG8      -0.054200
     12 CAH          1.8820     0.3480     4.9300 cd         1 LG8       0.050800
     13 CAE          2.8390     0.2190     6.0650 c          1 LG8       0.730700
     14 OAF          4.0220    -0.0560     5.9870 o          1 LG8      -0.517500
     15 NAD          2.0860     0.4770     7.1990 ns         1 LG8      -0.576500
     16 CAC          0.7510     0.7610     6.9640 c          1 LG8       0.755700
     17 OAB         -0.1220     1.0200     7.7720 o          1 LG8      -0.523500
     18 CAG          0.5950     0.6830     5.4840 cc         1 LG8      -0.252200
     19 CAL         -0.5730     0.9000     4.8760 cc         1 LG8       0.165800
     20 CAU         -0.7770     0.8320     3.4170 cd         1 LG8      -0.243100
     21 CAK         -1.8800     1.2370     5.4150 ca         1 LG8      -0.147800
     22 CAJ         -2.3570     1.4440     6.6950 ca         1 LG8      -0.012000
     23 CAI         -3.7110     1.7620     6.8400 ca         1 LG8      -0.133000
     24 CAQ         -4.5570     1.8660     5.7180 ca         1 LG8      -0.015000
     25 CAR         -4.0690     1.6550     4.4250 ca         1 LG8      -0.151000
     26 CAS         -2.7280     1.3420     4.2960 ca         1 LG8       0.016800
     27 NAT         -2.0050     1.0860     3.1020 na         1 LG8      -0.225400
     28 CBA         -2.6330     1.1250     1.7830 c3         1 LG8       0.282600
     29 CBF         -0.5630     0.9800     1.0410 c3         1 LG8      -0.138700
     30 CBG         -2.0870     1.0280     0.9810 c3         1 LG8       0.432800
     31 NBH         -2.5070     1.4180    -0.3240 n3         1 LG8      -0.723600
     32 C6          -0.0880     0.5700     2.4430 c3         1 LG8       0.202800
     33 CBI         -3.9780     1.4210    -0.4490 c3         1 LG8       0.141100
     34 CBJ         -1.9910     2.7510    -0.6910 c3         1 LG8       0.141100
     35 HBD1        -0.3520     0.2890    -0.9830 hc         1 LG8       0.112700
     36 HBD2        -0.3520    -0.9990     0.2290 hc         1 LG8       0.112700
     37 HBB1         1.8870    -0.8860    -0.5090 h1         1 LG8       0.127700
     38 HBB2         1.8870     0.8860    -0.5090 h1         1 LG8       0.127700
     39 HBF         -0.1750     1.9680     0.8250 hc         1 LG8       0.133700
     40 H6C1        -0.2890     1.3820     3.1320 hc         1 LG8       0.176200
     41 H6C2        -0.6370    -0.3090     2.7560 hc         1 LG8       0.176200
     42 HAY          4.2690    -0.6210    -0.2050 ha         1 LG8       0.166000
     43 HAZ          6.5160    -1.0150     0.8010 ha         1 LG8       0.185000
     44 HAP          6.8460    -0.8680     3.2490 ha         1 LG8       0.186000
     45 HAO          4.9390    -0.3230     4.7560 ha         1 LG8       0.235000
     46 HAD          2.4780     0.4590     8.1190 hn         1 LG8       0.383500
     47 HAU         -0.1990     0.1350     2.8230 h4         1 LG8       0.276000
     48 HAJ         -1.7050     1.3640     7.5560 ha         1 LG8       0.222000
     49 HAI         -4.1160     1.9300     7.8300 ha         1 LG8       0.181000
     50 HAQ         -5.6020     2.1130     5.8600 ha         1 LG8       0.176000
     51 HAR         -4.7160     1.7340     3.5600 ha         1 LG8       0.157000
     52 HBA1        -3.5390     1.7160     1.8320 h1         1 LG8      -0.011633
     53 HBA2        -1.9490     1.5720     1.0710 h1         1 LG8      -0.011633
     54 HBA3        -2.8760     0.1170     1.4690 h1         1 LG8      -0.011633
     55 HBG1        -2.4870     0.0470     1.2090 h1         1 LG8      -0.084800
     56 HBG2        -2.4540     1.7450     1.7060 h1         1 LG8      -0.084800
     57 HBJ1        -0.9260     2.6870    -0.8760 h1         1 LG8       0.060867
     58 HBJ2        -2.4930     3.0980    -1.5870 h1         1 LG8       0.060867
     59 HBJ3        -2.1770     3.4460     0.1190 h1         1 LG8       0.060867
     60 HBI1        -4.3690     0.4620    -0.1330 h1         1 LG8       0.060867
     61 HBI2        -4.3920     2.2030     0.1750 h1         1 LG8       0.060867
     62 HBI3        -4.2520     1.6000    -1.4820 h1         1 LG8       0.060867
@<TRIPOS>BOND
     1     1     2 1
     2     1    29 1
     3     1    35 1
     4     1    36 1
     5     2     3 1
     6     2    37 1
     7     2    38 1
     8     3     4 1
     9     3     5 1
    10     4    11 2
    11     4    32 1
    12     5     6 ar
    13     5    10 ar
    14     6     7 ar
    15     6    42 1
    16     7     8 ar
    17     7    43 1
    18     8     9 ar
    19     8    44 1
    20     9    10 ar
    21     9    45 1
    22    10    11 1
    23    11    12 1
    24    12    13 1
    25    12    18 2
    26    13    14 2
    27    13    15 1
    28    15    16 1
    29    15    46 1
    30    16    17 2
    31    16    18 1
    32    18    19 1
    33    19    20 2
    34    19    21 1
    35    20    27 1
    36    20    47 1
    37    21    22 ar
    38    21    26 ar
    39    22    23 ar
    40    22    48 1
    41    23    24 ar
    42    23    49 1
    43    24    25 ar
    44    24    50 1
    45    25    26 ar
    46    25    51 1
    47    26    27 1
    48    27    28 1
    49    28    52 1
    50    28    53 1
    51    28    54 1
    52    29    30 1
    53    29    32 1
    54    29    39 1
    55    30    31 1
    56    30    55 1
    57    30    56 1
    58    31    33 1
    59    31    34 1
    60    32    40 1
    61    32    41 1
    62    33    60 1
    63    33    61 1
    64    33    62 1
    65    34    57 1
    66    34    58 1
    67    34    59 1
@<TRIPOS>SUBSTRUCTURE
     1 LG8         1 TEMP              0 ****  ****    0 ROOT
