@<TRIPOS>MOLECULE
molecule
   32    33     1     0     0
SMALL
bcc


@<TRIPOS>ATOM
      1 O4           0.0000     0.0000     0.0000 oh         1 LG9      -0.606800
      2 C9           1.4300     0.0000     0.0000 c3         1 LG9       0.147400
      3 C1           1.9400     0.0000     1.4430 c3         1 LG9      -0.075700
      4 C5           3.4720    -0.1250     1.4660 c3         1 LG9       0.157500
      5 C4           3.8700    -1.3030     2.3870 c3         1 LG9       0.099100
      6 O1           3.9510    -2.5240     1.6500 oh         1 LG9      -0.597800
      7 C6           5.2730    -0.8570     2.8780 c3         1 LG9       0.101100
      8 O2           5.5760    -1.4460     4.1440 oh         1 LG9      -0.608800
      9 C7           5.1240     0.6740     3.0100 c3         1 LG9       0.147500
     10 C8           6.4130     1.3620     2.5540 c3         1 LG9       0.154400
     11 O3           6.7540     0.9130     1.2410 oh         1 LG9      -0.607800
     12 N4           4.0030     1.0830     2.1440 n3         1 LG9      -0.669600
     13 C3           2.8940     1.6020     2.9840 c3         1 LG9       0.098800
     14 C2           1.6340     1.3560     2.1200 c3         1 LG9       0.150100
     15 OXT          0.4680     1.2600     2.9400 oh         1 LG9      -0.591800
     16 H4          -0.3140    -0.2550    -0.8520 ho         1 LG9       0.400000
     17 H91C         1.7910     0.8840    -0.5110 h1         1 LG9       0.028700
     18 H92C         1.7910    -0.8850    -0.5110 h1         1 LG9       0.028700
     19 H1           1.4900    -0.8090     2.0060 hc         1 LG9       0.086700
     20 H5           3.8820    -0.2380     0.4700 h1         1 LG9       0.101700
     21 H2           1.5240     2.1360     1.3760 h1         1 LG9       0.053700
     22 HA           3.1820    -1.3900     3.2190 h1         1 LG9       0.061700
     23 HB           3.6800    -3.2410     2.1990 ho         1 LG9       0.407000
     24 H6           6.0300    -1.1030     2.1430 h1         1 LG9       0.083700
     25 HC           6.2640    -2.0810     4.0380 ho         1 LG9       0.408000
     26 H7           4.9070     0.9330     4.0390 h1         1 LG9       0.074700
     27 H81C         6.2640     2.4350     2.5400 h1         1 LG9       0.027200
     28 H82C         7.2150     1.1180     3.2390 h1         1 LG9       0.027200
     29 H3           7.4810     1.4170     0.9160 ho         1 LG9       0.401000
     30 H31C         3.0240     2.6610     3.1710 h1         1 LG9       0.053700
     31 H32C         2.8310     1.0490     3.9130 h1         1 LG9       0.053700
     32 HXT          0.0880     2.1160     3.0470 ho         1 LG9       0.403000
@<TRIPOS>BOND
     1     1     2 1
     2     2     3 1
     3     3     4 1
     4     3    14 1
     5     4     5 1
     6     4    12 1
     7     5     6 1
     8     5     7 1
     9     7     8 1
    10     7     9 1
    11     9    10 1
    12     9    12 1
    13    10    11 1
    14    12    13 1
    15    13    14 1
    16    14    15 1
    17     1    16 1
    18     2    17 1
    19     2    18 1
    20     3    19 1
    21     4    20 1
    22    14    21 1
    23     5    22 1
    24     6    23 1
    25     7    24 1
    26     8    25 1
    27     9    26 1
    28    10    27 1
    29    10    28 1
    30    11    29 1
    31    13    30 1
    32    13    31 1
    33    15    32 1
@<TRIPOS>SUBSTRUCTURE
     1 LG9         1 TEMP              0 ****  ****    0 ROOT
