@<TRIPOS>MOLECULE
LGA
   12    12     1     0     0
SMALL
bcc


@<TRIPOS>ATOM
      1 N2           0.0000     0.0000     0.0000 nv         1 LGA      -0.636500
      2 C1           1.3290     0.0000     0.0000 ca         1 LGA       0.710900
      3 N1           1.9510     0.0000     1.2050 nb         1 LGA      -0.631500
      4 C4           3.2860     0.0070     1.1750 ca         1 LGA       0.445700
      5 C5           3.9900     0.0200    -0.0040 ca         1 LGA      -0.350600
      6 C3           3.2840     0.0170    -1.1840 ca         1 LGA       0.445700
      7 N7           1.9530    -0.0050    -1.2120 nb         1 LGA      -0.631500
      8 H2N1        -0.5000    -0.8670     0.0000 hn         1 LGA       0.283800
      9 H2N2        -0.5000     0.8670    -0.0000 hn         1 LGA       0.283800
     10 H4           3.8310     0.0080     2.1110 h4         1 LGA      -0.023900
     11 H5           5.0730     0.0320    -0.0050 ha         1 LGA       0.126000
     12 H3           3.8280     0.0210    -2.1210 h4         1 LGA      -0.023900
@<TRIPOS>BOND
     1     1     2 1   
     2     1     8 1   
     3     1     9 1   
     4     2     3 ar  
     5     2     7 ar  
     6     3     4 ar  
     7     4     5 ar  
     8     4    10 1   
     9     5     6 ar  
    10     5    11 1   
    11     6     7 ar  
    12     6    12 1   
@<TRIPOS>SUBSTRUCTURE
     1 LGA         1 TEMP              0 ****  ****    0 ROOT
