@<TRIPOS>MOLECULE
molecule
   37    39     1     0     0
SMALL
bcc


@<TRIPOS>ATOM
      1 C1           0.0000     0.0000     0.0000 c3         1 LGB       0.280800
      2 N2           1.4630     0.0000     0.0000 nh         1 LGB      -0.836600
      3 C3           1.9110     0.0000     1.4190 c3         1 LGB       0.162500
      4 C4           0.8210    -0.8250     2.1330 c3         1 LGB       0.130100
      5 C5          -0.4590    -0.2560     1.4540 c3         1 LGB      -0.136400
      6 C6           2.6210    -0.0790    -0.7230 c2         1 LGB       0.860500
      7 O7           3.4470    -0.9470    -0.0790 os         1 LGB      -0.411400
      8 C8           3.2410    -0.7690     1.3380 c3         1 LGB       0.078100
      9 N9           2.8880     0.5640    -1.8350 ne         1 LGB      -0.632100
     10 C10          4.0440     0.3040    -2.5150 ca         1 LGB       0.197400
     11 C11          4.8640     1.3590    -2.9290 ca         1 LGB      -0.075300
     12 C12          6.0210     1.0980    -3.6080 ca         1 LGB       0.069400
     13 C13          6.3840    -0.2250    -3.8900 ca         1 LGB      -0.030000
     14 C14          5.5630    -1.2790    -3.4750 ca         1 LGB      -0.072000
     15 C15          4.4100    -1.0170    -2.7910 ca         1 LGB      -0.161000
     16 C16          4.4720     2.7820    -2.6260 c3         1 LGB      -0.047800
     17 Cl17         7.0390     2.4070    -4.1230 cl         1 LGB      -0.085400
     18 O18          0.8170    -0.5680     3.5390 oh         1 LGB      -0.587800
     19 C19          7.5950    -0.4990    -4.6020 cg         1 LGB       0.243800
     20 N20          8.5570    -0.6970    -5.1750 n1         1 LGB      -0.359800
     21 C21          4.3760     0.0540     1.9480 c3         1 LGB       0.606900
     22 F22          4.0900     0.3220     3.2910 f          1 LGB      -0.213300
     23 F23          5.5720    -0.6670     1.8620 f          1 LGB      -0.213300
     24 F24          4.5070     1.2580     1.2480 f          1 LGB      -0.213300
     25 H1          -0.3060     1.0100    -0.2440 h1         1 LGB       0.066700
     26 H1A         -0.3060    -0.8660    -0.5750 h1         1 LGB       0.066700
     27 H3           2.0220     0.9990     1.8220 h1         1 LGB       0.108700
     28 H4           0.9340    -1.8810     1.9210 h1         1 LGB       0.053700
     29 H5          -1.1850    -1.0590     1.4210 hc         1 LGB       0.080200
     30 H5A         -0.6530     0.7110     1.9010 hc         1 LGB       0.080200
     31 H8           3.1520    -1.7300     1.8300 h1         1 LGB       0.115700
     32 H14          5.8450    -2.3020    -3.6900 ha         1 LGB       0.146000
     33 H15          3.7740    -1.8330    -2.4700 ha         1 LGB       0.146000
     34 H16          4.9960     3.1210    -1.7410 hc         1 LGB       0.056033
     35 H16A         4.7330     3.4150    -3.4650 hc         1 LGB       0.056033
     36 H16B         3.4030     2.8330    -2.4540 hc         1 LGB       0.056033
     37 HO18         0.4260    -1.2970     3.9910 ho         1 LGB       0.414000
@<TRIPOS>BOND
     1     5     1 1
     2     1     2 1
     3     1    25 1
     4     1    26 1
     5     6     2 1
     6     3     2 1
     7     4     3 1
     8     3     8 1
     9     3    27 1
    10     5     4 1
    11     4    18 1
    12     4    28 1
    13     5    29 1
    14     5    30 1
    15     9     6 2
    16     6     7 1
    17     7     8 1
    18     8    21 1
    19     8    31 1
    20    10     9 1
    21    15    10 ar
    22    10    11 ar
    23    12    11 ar
    24    11    16 1
    25    13    12 ar
    26    12    17 1
    27    14    13 ar
    28    19    13 1
    29    14    15 ar
    30    14    32 1
    31    15    33 1
    32    16    34 1
    33    16    35 1
    34    16    36 1
    35    18    37 1
    36    20    19 3
    37    21    22 1
    38    21    24 1
    39    21    23 1
@<TRIPOS>SUBSTRUCTURE
     1 LGB         1 TEMP              0 ****  ****    0 ROOT
