@<TRIPOS>MOLECULE
LGD
   35    36     1     0     0
SMALL
bcc


@<TRIPOS>ATOM
      1 N1          0.1000    0.0630   -0.1050 n         1 LGD     -0.439100
      2 C2          1.4960    0.0260   -0.0390 c         1 LGD      0.689700
      3 C3          2.1000   -0.0440    1.3030 cc        1 LGD     -0.164200
      4 C4          1.3330   -0.0700    2.4160 cd        1 LGD     -0.058400
      5 F1          1.6470   -1.2470    4.5350 f         1 LGD     -0.228967
      6 F2          3.3790   -0.2170    3.7450 f         1 LGD     -0.228967
      7 F3          1.7530    0.9200    4.6110 f         1 LGD     -0.228967
      8 C5         -0.1110   -0.0250    2.3280 ca        1 LGD     -0.102800
      9 C6         -0.9420   -0.0350    3.4600 ca        1 LGD     -0.091000
     10 C7         -2.3360   -0.0100    3.3410 ca        1 LGD      0.111600
     11 C8         -2.9100    0.0480    2.0430 ca        1 LGD     -0.078000
     12 C9         -2.1120    0.0780    0.9200 ca        1 LGD     -0.168000
     13 C10        -0.6970    0.0390    1.0320 ca        1 LGD      0.097600
     14 C11         2.0090   -0.1500    3.7900 c3        1 LGD      0.679100
     15 C12        -4.0930    1.0090    4.7150 c3        1 LGD      0.198300
     16 N13        -3.1830   -0.0570    4.4760 nh        1 LGD     -0.702000
     17 C14        -2.9170   -0.9950    5.5160 c3        1 LGD      0.198300
     18 F4         -4.4850    3.1660    5.8010 f         1 LGD     -0.237300
     19 F5         -3.0520    1.8710    6.8000 f         1 LGD     -0.237300
     20 F6         -2.4960    2.9000    4.9660 f         1 LGD     -0.237300
     21 C15        -3.5230    2.2190    5.5610 c3        1 LGD      0.587400
     22 F7         -3.7120   -3.0420    6.5930 f         1 LGD     -0.237300
     23 F8         -5.2670   -1.7510    5.7910 f         1 LGD     -0.237300
     24 F9         -4.0400   -2.9410    4.4460 f         1 LGD     -0.237300
     25 C16        -3.9800   -2.1670    5.5720 c3        1 LGD      0.587400
     26 O21         2.1540    0.0530   -1.0950 o         1 LGD     -0.604500
     27 HN1        -0.3360    0.1070   -1.0000 hn        1 LGD      0.341500
     28 H3          3.2020   -0.0760    1.3240 ha        1 LGD      0.188000
     29 H9         -2.5810    0.1260   -0.0760 ha        1 LGD      0.149000
     30 H8         -4.0060    0.0620    1.9260 ha        1 LGD      0.151000
     31 H6         -0.4700   -0.0620    4.4580 ha        1 LGD      0.155000
     32 H121       -4.4340    1.4540    3.7380 h1        1 LGD      0.095700
     33 H122       -4.9820    0.6240    5.2920 h1        1 LGD      0.095700
     34 H141       -1.9200   -1.4950    5.3710 h1        1 LGD      0.095700
     35 H142       -2.9500   -0.5030    6.5300 h1        1 LGD      0.095700
@<TRIPOS>BOND
     1    1    2 1
     2    1   13 1
     3    1   27 1
     4    2    3 1
     5    2   26 2
     6    3    4 2
     7    3   28 1
     8    4    8 1
     9    4   14 1
    10    5   14 1
    11    6   14 1
    12    7   14 1
    13    8    9 ar
    14    8   13 ar
    15    9   10 ar
    16    9   31 1
    17   10   11 ar
    18   10   16 1
    19   11   12 ar
    20   11   30 1
    21   12   13 ar
    22   12   29 1
    23   15   16 1
    24   15   21 1
    25   15   32 1
    26   15   33 1
    27   16   17 1
    28   17   25 1
    29   17   34 1
    30   17   35 1
    31   18   21 1
    32   19   21 1
    33   20   21 1
    34   22   25 1
    35   23   25 1
    36   24   25 1
@<TRIPOS>SUBSTRUCTURE
     1 LGD         1 TEMP              0 ****  ****    0 ROOT
