@<TRIPOS>MOLECULE
molecule
   44    46     1     0     0
SMALL
bcc


@<TRIPOS>ATOM
      1 C01          0.0000     0.0000     0.0000 ca         1 LGE      -0.126000
      2 C02          1.3800     0.0000     0.0000 ca         1 LGE      -0.119000
      3 C03          1.3910    -0.0000     2.4000 ca         1 LGE      -0.106000
      4 C04         -0.6940     0.0050     1.2080 cp         1 LGE      -0.102000
      5 C05         -2.1770     0.0060     1.2130 cp         1 LGE       0.053000
      6 C06         -2.8940    -1.1880     1.2210 ca         1 LGE      -0.201600
      7 C07         -2.8980     1.2040     1.2160 ca         1 LGE      -0.302600
      8 C08          2.0760     0.0000     1.1970 ca         1 LGE       0.049400
      9 C09          0.0100     0.0120     2.4120 ca         1 LGE       0.040400
     10 C10         -4.2850    -1.1590     1.2270 ca         1 LGE       0.443800
     11 C11         -4.2810     1.1550     1.2210 ca         1 LGE       0.468600
     12 C12         -4.7740    -2.5560     1.2360 c          1 LGE       0.609000
     13 C13         -3.8780    -5.3840    -0.1720 c          1 LGE       0.610100
     14 C14         -2.4910    -2.6400     1.2280 c3         1 LGE       0.147300
     15 C15         -5.0650     2.4410     1.2240 c3         1 LGE      -0.155400
     16 C16         -4.0020    -7.1200    -1.7990 c3         1 LGE       0.140700
     17 C17         -2.1800     2.5290     1.2140 c3         1 LGE       0.167100
     18 N19         -4.9240     0.0080     1.2220 nb         1 LGE      -0.615000
     19 N20         -3.7380    -3.4120     1.2370 n          1 LGE      -0.472800
     20 N21         -1.9510     2.9600    -0.1730 nz         1 LGE      -0.810600
     21 O22         -5.9450    -2.8830     1.2420 o          1 LGE      -0.552500
     22 O23         -3.8280    -4.6060    -1.0950 o          1 LGE      -0.546000
     23 O24         -3.9680    -6.7010    -0.4090 os         1 LGE      -0.420900
     24 Cl25         3.8110    -0.0000     1.1890 cl         1 LGE      -0.045400
     25 Cl26        -0.8470     0.0180     3.9210 cl         1 LGE      -0.058400
     26 H01         -0.5420    -0.0000    -0.9380 ha         1 LGE       0.140000
     27 H02          1.9210    -0.0020    -0.9390 ha         1 LGE       0.166000
     28 H03          1.9390     0.0020     3.3350 ha         1 LGE       0.180000
     29 H14         -1.9190    -2.8700     0.3370 h1         1 LGE       0.081200
     30 H14A        -1.9120    -2.8600     2.1170 h1         1 LGE       0.081200
     31 H15         -6.1240     2.2190     1.2790 hc         1 LGE       0.064033
     32 H15A        -4.7760     3.0380     2.0810 hc         1 LGE       0.064033
     33 H15B        -4.8590     2.9920     0.3140 hc         1 LGE       0.064033
     34 H16         -4.1170    -8.1960    -1.8500 h1         1 LGE       0.056367
     35 H16A        -4.8360    -6.6430    -2.2990 h1         1 LGE       0.056367
     36 H16B        -3.0770    -6.8320    -2.2850 h1         1 LGE       0.056367
     37 H17         -2.7840     3.2680     1.7270 hx         1 LGE       0.116700
     38 H17A        -1.2280     2.4250     1.7210 hx         1 LGE       0.116700
     39 H18         -4.7430    -5.1710     1.7610 h1         1 LGE       0.101200
     40 H18A        -2.9790    -5.2920     1.7550 h1         1 LGE       0.101200
     41 HN21        -0.9820     3.1760    -0.2990 hn         1 LGE       0.455467
     42 HN2A        -2.5020     3.7730    -0.3640 hn         1 LGE       0.455467
     43 C18         -3.8380    -4.8740     1.2450 c3         1 LGE       0.093000
     44 H213        -2.2140     2.2240    -0.7980 hn         1 LGE       0.455467
@<TRIPOS>BOND
     1     4     1 ar
     2     1     2 ar
     3     1    26 1
     4     2     8 ar
     5     2    27 1
     6     9     3 ar
     7     3     8 ar
     8     3    28 1
     9     5     4 1
    10     4     9 ar
    11     7     5 ar
    12     6     5 ar
    13    10     6 ar
    14     6    14 1
    15    11     7 ar
    16     7    17 1
    17     8    24 1
    18    25     9 1
    19    18    10 ar
    20    12    10 1
    21    15    11 1
    22    18    11 ar
    23    21    12 2
    24    12    19 1
    25    22    13 2
    26    23    13 1
    27    13    43 1
    28    19    14 1
    29    14    29 1
    30    14    30 1
    31    15    31 1
    32    15    32 1
    33    15    33 1
    34    16    23 1
    35    16    34 1
    36    16    35 1
    37    16    36 1
    38    17    20 1
    39    17    37 1
    40    17    38 1
    41    43    19 1
    42    43    39 1
    43    43    40 1
    44    20    41 1
    45    20    42 1
    46    44    20 1
@<TRIPOS>SUBSTRUCTURE
     1 LGE         1 TEMP              0 ****  ****    0 ROOT
