@<TRIPOS>MOLECULE
molecule
   64    69     1     0     0
SMALL
bcc


@<TRIPOS>ATOM
      1 C13          0.0000     0.0000     0.0000 ca         1 LGF       0.167900
      2 C18          1.2760    -1.0340     9.4850 ca         1 LGF      -0.298900
      3 C16          0.8640    -1.9130     8.3760 c          1 LGF       0.697700
      4 C15         -0.0200    -0.0010     2.3960 ca         1 LGF      -0.071000
      5 C19          2.5980    -1.0310     9.9370 ca         1 LGF       0.000000
      6 C21          0.3450    -0.1790    10.1020 ca         1 LGF       0.726600
      7 C22          1.9460     0.6500    11.5520 ca         1 LGF       0.507800
      8 C23          2.9300    -0.1780    10.9820 ca         1 LGF      -0.216100
      9 C24          4.1790     0.1060    11.7170 cc         1 LGF      -0.246400
     10 C11          2.0770     0.0000     1.1960 ca         1 LGF       0.200900
     11 C12          1.3850     0.0000     0.0000 ca         1 LGF      -0.217000
     12 C27          5.4880    -0.5040    11.4950 c          1 LGF       0.555300
     13 F33         -0.6720    -0.0060    -1.1720 f          1 LGF      -0.131900
     14 C14         -0.7000    -0.0010     1.1970 ca         1 LGF      -0.188000
     15 F32          3.4280     0.0010     1.1960 f          1 LGF      -0.110900
     16 C10          1.3760    -0.0000     2.4050 ca         1 LGF      -0.165500
     17 C9           2.1100     0.0000     3.6880 cc         1 LGF       0.454000
     18 N8           3.1390     0.7670     3.9890 nd         1 LGF      -0.667000
     19 N5           1.8370    -0.7860     4.7630 na         1 LGF      -0.170900
     20 C6           2.7570    -0.4700     5.7320 cc         1 LGF      -0.244900
     21 C7           3.5480     0.4900     5.2370 cd         1 LGF       0.327200
     22 C4           2.8070    -1.1290     7.0890 c3         1 LGF       0.179300
     23 N3           1.5680    -1.9210     7.2260 n          1 LGF      -0.500800
     24 C2           1.1250    -2.7190     6.0740 c3         1 LGF       0.100000
     25 C1           0.7760    -1.7830     4.9100 c3         1 LGF       0.017300
     26 O17         -0.1090    -2.6310     8.4970 o          1 LGF      -0.587100
     27 N26          2.5450     1.3790    12.5530 na         1 LGF      -0.262100
     28 C25          3.8570     1.0650    12.6570 cd         1 LGF      -0.005100
     29 N20          0.7000     0.6160    11.0910 nb         1 LGF      -0.799000
     30 O34         -0.9400    -0.1740     9.6720 os         1 LGF      -0.416100
     31 C35         -1.8420     0.7140    10.3350 c3         1 LGF       0.135700
     32 O28          5.6290    -1.3420    10.6260 o          1 LGF      -0.535100
     33 C29          6.6520    -0.0980    12.3350 c          1 LGF       0.597100
     34 O31          6.5120     0.7390    13.2030 o          1 LGF      -0.614100
     35 N30          7.8600    -0.6610    12.1300 n          1 LGF      -0.467800
     36 C36          9.0870    -0.3560    12.8820 c3         1 LGF       0.089000
     37 C37         10.2170    -1.2180    12.2830 c3         1 LGF       0.129100
     38 O40         11.4360    -0.4750    12.2140 oh         1 LGF      -0.592800
     39 C38          9.6900    -1.5420    10.8600 c3         1 LGF      -0.111400
     40 C39          8.1680    -1.6890    11.1190 c3         1 LGF       0.088000
     41 H1          -0.5680    -0.0020     3.3310 ha         1 LGF       0.147000
     42 H2           3.2650    -1.8400     9.6660 ha         1 LGF       0.168000
     43 H3           1.9260     0.0000    -0.9380 ha         1 LGF       0.165000
     44 H4          -1.7830    -0.0010     1.1890 ha         1 LGF       0.152000
     45 H5           4.3740     0.9630     5.7550 h4         1 LGF       0.044100
     46 H6           2.8500    -0.3740     7.8650 h1         1 LGF       0.073200
     47 H7           3.6700    -1.7810     7.1510 h1         1 LGF       0.073200
     48 H8           0.2270    -3.2530     6.3590 h1         1 LGF       0.080700
     49 H9           1.9490    -3.3500     5.7630 h1         1 LGF       0.080700
     50 H10          0.6910    -2.3580     3.9960 h1         1 LGF       0.067700
     51 H11         -0.1630    -1.2830     5.1180 h1         1 LGF       0.067700
     52 H12          2.0740     2.0500    13.1270 hn         1 LGF       0.312700
     53 H13          4.5490     1.5000    13.3680 h4         1 LGF       0.218000
     54 H14         -1.8890     0.4620    11.3880 h1         1 LGF       0.048033
     55 H15         -1.4930     1.7340    10.2230 h1         1 LGF       0.048033
     56 H16         -2.8280     0.6200     9.8970 h1         1 LGF       0.048033
     57 H17          9.3300     0.6950    12.7760 h1         1 LGF       0.065700
     58 H18          8.9490    -0.6050    13.9270 h1         1 LGF       0.065700
     59 H19         10.3470    -2.1270    12.8570 h1         1 LGF       0.045700
     60 H20         12.1120    -0.9340    12.6850 ho         1 LGF       0.407000
     61 H21         10.1110    -2.4710    10.4950 hc         1 LGF       0.068200
     62 H22          9.8880    -0.7230    10.1790 hc         1 LGF       0.068200
     63 H23          7.6120    -1.5010    10.2090 h1         1 LGF       0.068200
     64 H24          7.9470    -2.6760    11.5070 h1         1 LGF       0.068200
@<TRIPOS>BOND
     1    13     1 1
     2     1    14 ar
     3     1    11 ar
     4    14     4 ar
     5    11    10 ar
     6     4    16 ar
     7    10    16 ar
     8    10    15 1
     9    16    17 1
    10    17    18 2
    11    17    19 1
    12    18    21 1
    13    25    19 1
    14    25    24 1
    15    19    20 1
    16    24    23 1
    17    21    20 2
    18    20    22 1
    19    23    22 1
    20    23     3 1
    21    26     3 2
    22     3     2 1
    23    30    31 1
    24    30     6 1
    25     2     6 ar
    26     2     5 ar
    27     6    29 ar
    28     5     8 ar
    29    29     7 ar
    30     7     8 ar
    31     7    27 1
    32     8     9 1
    33    32    12 2
    34    27    28 1
    35     9    12 1
    36     9    28 2
    37    12    33 1
    38    38    37 1
    39    33    34 2
    40    33    35 1
    41    35    36 1
    42    35    40 1
    43    37    36 1
    44    37    39 1
    45    40    39 1
    46     4    41 1
    47     5    42 1
    48    11    43 1
    49    14    44 1
    50    21    45 1
    51    22    46 1
    52    22    47 1
    53    24    48 1
    54    24    49 1
    55    25    50 1
    56    25    51 1
    57    27    52 1
    58    28    53 1
    59    31    54 1
    60    31    55 1
    61    31    56 1
    62    36    57 1
    63    36    58 1
    64    37    59 1
    65    38    60 1
    66    39    61 1
    67    39    62 1
    68    40    63 1
    69    40    64 1
@<TRIPOS>SUBSTRUCTURE
     1 LGF         1 TEMP              0 ****  ****    0 ROOT
