@<TRIPOS>MOLECULE
LGF
   64    69     1     0     0
SMALL
bcc


@<TRIPOS>ATOM
      1 C13          0.0000     0.0000     0.0000 ca         1 LGF       0.135900
      2 C18          1.2760    -1.0340     9.4850 ca         1 LGF      -0.309900
      3 C16          0.8640    -1.9130     8.3760 c          1 LGF       0.639700
      4 C15         -0.0200    -0.0010     2.3960 ca         1 LGF      -0.059000
      5 C19          2.5980    -1.0310     9.9370 ca         1 LGF       0.031000
      6 C21          0.3450    -0.1790    10.1020 ca         1 LGF       0.678600
      7 C22          1.9460     0.6500    11.5520 ca         1 LGF       0.261800
      8 C23          2.9300    -0.1780    10.9820 ca         1 LGF      -0.205100
      9 C24          4.1790     0.1060    11.7170 cc         1 LGF      -0.247400
     10 C11          2.0770     0.0000     1.1960 ca         1 LGF       0.173900
     11 C12          1.3850     0.0000     0.0000 ca         1 LGF      -0.172000
     12 C27          5.4880    -0.5040    11.4950 c          1 LGF       0.616300
     13 F33         -0.6720    -0.0060    -1.1720 f          1 LGF      -0.122900
     14 C14         -0.7000    -0.0010     1.1970 ca         1 LGF      -0.145000
     15 F32          3.4280     0.0010     1.1960 f          1 LGF      -0.110900
     16 C10          1.3760    -0.0000     2.4050 ca         1 LGF      -0.147500
     17 C9           2.1100     0.0000     3.6880 cc         1 LGF       0.257000
     18 N8           3.1390     0.7670     3.9890 nd         1 LGF      -0.593000
     19 N5           1.8370    -0.7860     4.7630 na         1 LGF       0.314100
     20 C6           2.7570    -0.4700     5.7320 cc         1 LGF      -0.435900
     21 C7           3.5480     0.4900     5.2370 cd         1 LGF       0.342200
     22 C4           2.8070    -1.1290     7.0890 c3         1 LGF       0.146300
     23 N3           1.5680    -1.9210     7.2260 n          1 LGF      -0.177800
     24 C2           1.1250    -2.7190     6.0740 c3         1 LGF       0.050000
     25 C1           0.7760    -1.7830     4.9100 c3         1 LGF      -0.072700
     26 O17         -0.1090    -2.6310     8.4970 o          1 LGF      -0.627100
     27 N26          2.5450     1.3790    12.5530 na         1 LGF       0.291900
     28 C25          3.8570     1.0650    12.6570 cd         1 LGF      -0.191100
     29 N20          0.7000     0.6160    11.0910 nb         1 LGF      -0.664000
     30 O34         -0.9400    -0.1740     9.6720 os         1 LGF      -0.409100
     31 C35         -1.8420     0.7140    10.3350 c3         1 LGF       0.252700
     32 O28          5.6290    -1.3420    10.6260 o          1 LGF      -0.580100
     33 C29          6.6520    -0.0980    12.3350 c          1 LGF       0.517100
     34 O31          6.5120     0.7390    13.2030 o          1 LGF      -0.655100
     35 N30          7.8600    -0.6610    12.1300 n          1 LGF      -0.114800
     36 C36          9.0870    -0.3560    12.8820 c3         1 LGF       0.028000
     37 C37         10.2170    -1.2180    12.2830 c3         1 LGF       0.180100
     38 O40         11.4360    -0.4750    12.2140 oh         1 LGF      -0.571800
     39 C38          9.6900    -1.5420    10.8600 c3         1 LGF      -0.054400
     40 C39          8.1680    -1.6890    11.1190 c3         1 LGF       0.026000
     41 H1          -0.5680    -0.0020     3.3310 ha         1 LGF       0.113000
     42 H2           3.2650    -1.8400     9.6660 ha         1 LGF       0.134000
     43 H3           1.9260     0.0000    -0.9380 ha         1 LGF       0.138000
     44 H4          -1.7830    -0.0010     1.1890 ha         1 LGF       0.124000
     45 H5           4.3740     0.9630     5.7550 h4         1 LGF       0.006100
     46 H6           2.8500    -0.3740     7.8650 h1         1 LGF       0.043200
     47 H7           3.6700    -1.7810     7.1510 h1         1 LGF       0.043200
     48 H8           0.2270    -3.2530     6.3590 h1         1 LGF       0.051200
     49 H9           1.9490    -3.3500     5.7630 h1         1 LGF       0.051200
     50 H10          0.6910    -2.3580     3.9960 h1         1 LGF       0.042700
     51 H11         -0.1630    -1.2830     5.1180 h1         1 LGF       0.042700
     52 H12          2.0740     2.0500    13.1270 hn         1 LGF       0.122700
     53 H13          4.5490     1.5000    13.3680 h4         1 LGF       0.188000
     54 H14         -1.8890     0.4620    11.3880 h1         1 LGF       0.000033
     55 H15         -1.4930     1.7340    10.2230 h1         1 LGF       0.000033
     56 H16         -2.8280     0.6200     9.8970 h1         1 LGF       0.000033
     57 H17          9.3300     0.6950    12.7760 h1         1 LGF       0.034200
     58 H18          8.9490    -0.6050    13.9270 h1         1 LGF       0.034200
     59 H19         10.3470    -2.1270    12.8570 h1         1 LGF       0.008700
     60 H20         12.1120    -0.9340    12.6850 ho         1 LGF       0.392000
     61 H21         10.1110    -2.4710    10.4950 hc         1 LGF       0.035200
     62 H22          9.8880    -0.7230    10.1790 hc         1 LGF       0.035200
     63 H23          7.6120    -1.5010    10.2090 h1         1 LGF       0.042200
     64 H24          7.9470    -2.6760    11.5070 h1         1 LGF       0.042200
@<TRIPOS>BOND
     1     1    11 ar  
     2     1    13 1   
     3     1    14 ar  
     4     2     3 1   
     5     2     5 ar  
     6     2     6 ar  
     7     3    23 1   
     8     3    26 2   
     9     4    14 ar  
    10     4    16 ar  
    11     4    41 1   
    12     5     8 ar  
    13     5    42 1   
    14     6    29 ar  
    15     6    30 1   
    16     7     8 ar  
    17     7    27 1   
    18     7    29 ar  
    19     8     9 1   
    20     9    12 1   
    21     9    28 2   
    22    10    11 ar  
    23    10    15 1   
    24    10    16 ar  
    25    11    43 1   
    26    12    32 2   
    27    12    33 1   
    28    14    44 1   
    29    16    17 1   
    30    17    18 2   
    31    17    19 1   
    32    18    21 1   
    33    19    20 1   
    34    19    25 1   
    35    20    21 2   
    36    20    22 1   
    37    21    45 1   
    38    22    23 1   
    39    22    46 1   
    40    22    47 1   
    41    23    24 1   
    42    24    25 1   
    43    24    48 1   
    44    24    49 1   
    45    25    50 1   
    46    25    51 1   
    47    27    28 1   
    48    27    52 1   
    49    28    53 1   
    50    30    31 1   
    51    31    54 1   
    52    31    55 1   
    53    31    56 1   
    54    33    34 2   
    55    33    35 1   
    56    35    36 1   
    57    35    40 1   
    58    36    37 1   
    59    36    57 1   
    60    36    58 1   
    61    37    38 1   
    62    37    39 1   
    63    37    59 1   
    64    38    60 1   
    65    39    40 1   
    66    39    61 1   
    67    39    62 1   
    68    40    63 1   
    69    40    64 1   
@<TRIPOS>SUBSTRUCTURE
     1 LGF         1 TEMP              0 ****  ****    0 ROOT
