@<TRIPOS>MOLECULE
LGH
   53    52     1     0     0
SMALL
bcc


@<TRIPOS>ATOM
      1 C1          0.2570   -2.5550    0.7970 ca        1 LGH     -0.172000
      2 C2          1.0020   -1.9530   -0.2170 ca        1 LGH     -0.076000
      3 C3         -0.2060   -1.7920    1.8670 ca        1 LGH     -0.088000
      4 C4         -2.2140    3.9540    0.9760 ca        1 LGH     -0.230000
      5 C5         -1.0630    4.1570    0.2460 ca        1 LGH     -0.015000
      6 C6          1.2910   -0.5930   -0.1700 ca        1 LGH     -0.204000
      7 C7         -2.1680    5.9260   -1.0180 ca        1 LGH     -0.002000
      8 C8          0.0600   -0.4200    1.9310 ca        1 LGH     -0.192500
      9 C9         -1.7580    0.9100    3.2810 cc        1 LGH     -0.399200
     10 C10        -3.3930    4.7200    0.7350 ca        1 LGH      0.262600
     11 C11        -1.0320    5.1420   -0.7610 ca        1 LGH     -0.259200
     12 C12         0.8280    0.1790    0.9080 ca        1 LGH      0.166100
     13 C13        -3.3280    5.7170   -0.2850 ca        1 LGH     -0.104600
     14 C14        -0.4100    0.3610    3.0680 cc        1 LGH      0.417800
     15 C15        -1.6670    1.5800    4.4970 cd        1 LGH      0.356000
     16 C17        -6.8010    4.2180    4.6330 c1        1 LGH     -0.170500
     17 C18        -6.7640    0.0160   -0.3400 c1        1 LGH     -0.170500
     18 C19        -6.1800    3.3180    4.1470 c1        1 LGH     -0.170500
     19 C20        -6.2200    0.5880    0.5580 c1        1 LGH     -0.170500
     20 C21        -2.5890    2.3490    5.3300 c3        1 LGH     -0.161400
     21 C22         1.9920    2.1050    0.1210 c3        1 LGH      0.106700
     22 N23         0.3660    0.7160    4.1140 nd        1 LGH     -0.332300
     23 N24        -4.5150    4.5080    1.4790 nh        1 LGH     -0.849200
     24 N25        -3.0290   -0.1270    1.4660 n         1 LGH     -0.648000
     25 N26         0.1980    5.3400   -1.5480 no        1 LGH      0.328200
     26 O27         1.1470    4.6250   -1.3400 o         1 LGH     -0.231000
     27 O28        -3.9180    1.6240    2.5980 o         1 LGH     -0.702100
     28 O29         0.2340    6.2040   -2.3850 o         1 LGH     -0.231000
     29 O30        -0.3490    1.4250    4.9670 os        1 LGH     -0.112100
     30 O31         1.0580    1.5300    1.0360 os        1 LGH     -0.327900
     31 CL32       -4.6940    6.6770   -0.6250 cl        1 LGH     -0.089400
     32 H1          0.0420   -3.6330    0.7590 ha        1 LGH      0.141000
     33 H2          1.3700   -2.5570   -1.0600 ha        1 LGH      0.140000
     34 H3         -0.7770   -2.2710    2.6780 ha        1 LGH      0.144000
     35 H5         -0.1660    3.5400    0.4480 ha        1 LGH      0.174000
     36 H6          1.8840   -0.1310   -0.9720 ha        1 LGH      0.150000
     37 H7         -2.1380    6.7030   -1.8040 ha        1 LGH      0.177000
     38 H17        -7.3520    5.0160    5.0620 ha        1 LGH      0.170750
     39 H17A       -4.5500    3.7320    2.1010 hn        1 LGH      0.451300
     40 H18        -5.3550    4.9810    1.2560 hn        1 LGH      0.451300
     41 H18A       -7.2480   -0.4900   -1.1370 ha        1 LGH      0.170750
     42 H19        -5.6310    2.5100    3.7220 ha        1 LGH      0.170750
     43 H19A       -2.2660   -0.7240    1.2690 hn        1 LGH      0.326500
     44 H20        -3.8290   -0.1530    0.8780 hn        1 LGH      0.326500
     45 H20A       -5.7420    1.1010    1.3610 ha        1 LGH      0.170750
     46 H21        -2.1430    3.3450    5.5820 hc        1 LGH      0.082367
     47 H21A       -2.7900    1.8020    6.2860 hc        1 LGH      0.082367
     48 H21B       -3.5540    2.5020    4.7800 hc        1 LGH      0.082367
     49 H22         2.9690    1.5690    0.1620 h1        1 LGH      0.059033
     50 H22A        1.5730    2.1040   -0.9150 h1        1 LGH      0.059033
     51 H22B        2.0980    3.1590    0.4880 h1        1 LGH      0.059033
     52 C16        -2.9500    0.8320    2.4360 c         1 LGH      0.727700
     53 H4         -2.2290    3.1780    1.7600 ha        1 LGH      0.159000
@<TRIPOS>BOND
     1    1    2 ar
     2    1    3 ar
     3    1   32 1
     4    2    6 ar
     5    2   33 1
     6    3    8 ar
     7    3   34 1
     8    4    5 ar
     9    4   10 ar
    10    4   53 1
    11    5   11 ar
    12    5   35 1
    13    6   12 ar
    14    6   36 1
    15    7   11 ar
    16    7   13 ar
    17    7   37 1
    18    8   12 ar
    19    8   14 1
    20    9   14 1
    21    9   15 2
    22    9   52 1
    23   10   13 ar
    24   10   23 1
    25   11   25 1
    26   12   30 1
    27   13   31 1
    28   14   22 2
    29   15   20 1
    30   15   29 1
    31   16   18 3
    32   16   38 1
    33   17   19 3
    34   17   41 1
    35   18   42 1
    36   19   45 1
    37   20   46 1
    38   20   47 1
    39   20   48 1
    40   21   30 1
    41   21   49 1
    42   21   50 1
    43   21   51 1
    44   22   29 1
    45   23   39 1
    46   23   40 1
    47   24   43 1
    48   24   44 1
    49   24   52 1
    50   25   26 1
    51   25   28 1
    52   27   52 2
@<TRIPOS>SUBSTRUCTURE
     1 LGH         1 TEMP              0 ****  ****    0 ROOT
