@<TRIPOS>MOLECULE
molecule
   59    63     1     0     0
SMALL
bcc


@<TRIPOS>ATOM
      1 C1           0.0000     0.0000     0.0000 ca         1 LGJ      -0.076000
      2 C2           1.3830     0.0000     0.0000 ca         1 LGJ      -0.148000
      3 C3           0.4820    -2.9280    10.5840 ca         1 LGJ      -0.116000
      4 C4          -0.6920     0.0010     1.1940 ca         1 LGJ      -0.135000
      5 C5          -0.6640    -1.1040     4.5330 ca         1 LGJ      -0.048000
      6 C6           0.3240    -4.1920    11.1130 ca         1 LGJ      -0.098000
      7 C7          -0.6130    -2.1020    10.4190 ca         1 LGJ      -0.067000
      8 C8          -1.3510    -1.1020     5.7280 ca         1 LGJ      -0.135000
      9 C9           2.0800     0.0000     1.1950 ca         1 LGJ      -0.025000
     10 C10         -1.4990     1.1090     4.0510 ca         1 LGJ      -0.128000
     11 C11         -2.0490    -3.8080    11.3180 ca         1 LGJ      -0.065000
     12 C12         -4.4470    -0.2710     9.7660 cc         1 LGJ      -0.268300
     13 C13         -0.7350     0.0020     3.6870 cp         1 LGJ      -0.114000
     14 C14          0.0040     0.0010     2.4010 cp         1 LGJ       0.054000
     15 C15         -0.9440    -4.6420    11.4840 ca         1 LGJ      -0.108900
     16 C16         -1.8810    -2.5390    10.7850 ca         1 LGJ      -0.000200
     17 C17         -2.1130     0.0020     6.0920 ca         1 LGJ       0.033600
     18 C18         -2.1850     1.1080     5.2490 ca         1 LGJ       0.075900
     19 C19          1.3990     0.0000     2.3940 ca         1 LGJ      -0.285500
     20 C20         -3.2700    -0.9460     9.5070 cd         1 LGJ      -0.129900
     21 C21         -4.8670    -0.6280    11.0440 cc         1 LGJ       0.247600
     22 C22         -1.1160    -5.9980    12.0500 cc         1 LGJ       0.419500
     23 C23         -0.6550    -8.0310    12.7870 c          1 LGJ       0.764500
     24 C24         -2.4700    -0.8710     8.2750 c          1 LGJ       0.698700
     25 C25          1.8450     1.5740     4.6990 c3         1 LGJ      -0.227300
     26 C26         -6.1100    -0.1240    11.7300 c3         1 LGJ       0.616600
     27 N27         -4.0050    -1.4740    11.5520 nd         1 LGJ      -0.424800
     28 N28         -2.2450    -6.5270    12.4310 nd         1 LGJ      -0.486300
     29 N29         -2.9870    -1.6970    10.6160 na         1 LGJ       0.198300
     30 N30         -0.1080    -6.9180    12.2580 ns         1 LGJ      -0.482400
     31 N31         -1.9820    -7.8180    12.9060 ns         1 LGJ      -0.324900
     32 N32         -2.8090     0.0020     7.3040 ns         1 LGJ      -0.449100
     33 O33         -0.0600    -9.0480    13.0980 o          1 LGJ      -0.654500
     34 O34         -1.5050    -1.5950     8.1320 o          1 LGJ      -0.584100
     35 O35          1.7380    -1.0920     4.6420 o          1 LGJ      -0.623300
     36 O36          3.6530     0.0030     3.5230 o          1 LGJ      -0.623300
     37 F37         -2.9270     2.1800     5.6040 f          1 LGJ      -0.144900
     38 F38         -7.1820    -0.9740    11.4370 f          1 LGJ      -0.210633
     39 F39         -5.9030    -0.0990    13.1140 f          1 LGJ      -0.210633
     40 F40         -6.4020     1.1680    11.2790 f          1 LGJ      -0.210633
     41 S41          2.2880    -0.0010     3.9150 sy         1 LGJ       1.196300
     42 H1          -0.5410    -0.0000    -0.9390 ha         1 LGJ       0.137000
     43 H2           1.9230    -0.0000    -0.9390 ha         1 LGJ       0.139000
     44 H4          -1.7760     0.0010     1.1930 ha         1 LGJ       0.142000
     45 H5          -0.0710    -1.9650     4.2500 ha         1 LGJ       0.182000
     46 H6           1.1860    -4.8370    11.2410 ha         1 LGJ       0.133000
     47 H7          -0.4840    -1.1100    10.0040 ha         1 LGJ       0.154000
     48 H8          -1.2960    -1.9610     6.3850 ha         1 LGJ       0.197000
     49 H9           3.1630    -0.0000     1.1890 ha         1 LGJ       0.162000
     50 H10         -1.5550     1.9690     3.3950 ha         1 LGJ       0.152000
     51 H11         -3.0360    -4.1500    11.6030 ha         1 LGJ       0.173000
     52 H12         -4.9990     0.3400     9.0620 ha         1 LGJ       0.171000
     53 H25          1.5810     1.3990     5.7350 h1         1 LGJ       0.102367
     54 H25A         1.0010     2.0110     4.1800 h1         1 LGJ       0.102367
     55 H25B         2.6890     2.2510     4.6510 h1         1 LGJ       0.102367
     56 HN30         0.8620    -6.7820    12.0550 hn         1 LGJ       0.363500
     57 HN31        -2.6550    -8.4650    13.2660 hn         1 LGJ       0.394500
     58 HN32        -3.5860     0.6190     7.4350 hn         1 LGJ       0.341500
     59 H3           1.4670    -2.5820    10.2970 ha         1 LGJ       0.149000
@<TRIPOS>BOND
     1     1     2 ar
     2     1     4 ar
     3     2     9 ar
     4     3     6 ar
     5     3     7 ar
     6     4    14 ar
     7     5     8 ar
     8     5    13 ar
     9     6    15 ar
    10     7    16 ar
    11     8    17 ar
    12     9    19 ar
    13    10    13 ar
    14    10    18 ar
    15    11    15 ar
    16    11    16 ar
    17    12    20 2
    18    12    21 1
    19    13    14 1
    20    14    19 ar
    21    15    22 1
    22    16    29 1
    23    17    18 ar
    24    17    32 1
    25    18    37 1
    26    19    41 1
    27    20    24 1
    28    20    29 1
    29    21    26 1
    30    21    27 2
    31    22    28 2
    32    22    30 1
    33    23    30 1
    34    23    31 1
    35    23    33 2
    36    24    32 1
    37    24    34 2
    38    25    41 1
    39    26    38 1
    40    26    39 1
    41    26    40 1
    42    27    29 1
    43    28    31 1
    44    35    41 2
    45    36    41 2
    46     1    42 1
    47     2    43 1
    48     3    59 1
    49     4    44 1
    50     5    45 1
    51     6    46 1
    52     7    47 1
    53     8    48 1
    54     9    49 1
    55    10    50 1
    56    11    51 1
    57    12    52 1
    58    25    53 1
    59    25    54 1
    60    25    55 1
    61    30    56 1
    62    31    57 1
    63    32    58 1
@<TRIPOS>SUBSTRUCTURE
     1 LGJ         1 TEMP              0 ****  ****    0 ROOT
