@<TRIPOS>MOLECULE
LGJ
   59    63     1     0     0
SMALL
bcc


@<TRIPOS>ATOM
      1 C1           0.0000     0.0000     0.0000 ca         1 LGJ      -0.048000
      2 C2           1.3830     0.0000     0.0000 ca         1 LGJ      -0.130000
      3 C3           0.4820    -2.9280    10.5840 ca         1 LGJ      -0.088000
      4 C4          -0.6920     0.0010     1.1940 ca         1 LGJ      -0.120000
      5 C5          -0.6640    -1.1040     4.5330 ca         1 LGJ      -0.013000
      6 C6           0.3240    -4.1920    11.1130 ca         1 LGJ      -0.068000
      7 C7          -0.6130    -2.1020    10.4190 ca         1 LGJ      -0.027000
      8 C8          -1.3510    -1.1020     5.7280 ca         1 LGJ      -0.122000
      9 C9           2.0800     0.0000     1.1950 ca         1 LGJ       0.008000
     10 C10         -1.4990     1.1090     4.0510 ca         1 LGJ      -0.101000
     11 C11         -2.0490    -3.8080    11.3180 ca         1 LGJ      -0.021000
     12 C12         -4.4470    -0.2710     9.7660 cc         1 LGJ      -0.242300
     13 C13         -0.7350     0.0020     3.6870 cp         1 LGJ      -0.102000
     14 C14          0.0040     0.0010     2.4010 cp         1 LGJ       0.063000
     15 C15         -0.9440    -4.6420    11.4840 ca         1 LGJ      -0.113900
     16 C16         -1.8810    -2.5390    10.7850 ca         1 LGJ      -0.194200
     17 C17         -2.1130     0.0020     6.0920 ca         1 LGJ      -0.114400
     18 C18         -2.1850     1.1080     5.2490 ca         1 LGJ       0.046900
     19 C19          1.3990     0.0000     2.3940 ca         1 LGJ      -0.143500
     20 C20         -3.2700    -0.9460     9.5070 cd         1 LGJ      -0.331900
     21 C21         -4.8670    -0.6280    11.0440 cc         1 LGJ       0.247600
     22 C22         -1.1160    -5.9980    12.0500 cc         1 LGJ       0.288500
     23 C23         -0.6550    -8.0310    12.7870 c          1 LGJ       0.535500
     24 C24         -2.4700    -0.8710     8.2750 c          1 LGJ       0.614700
     25 C25          1.8450     1.5740     4.6990 c3         1 LGJ       0.016700
     26 C26         -6.1100    -0.1240    11.7300 c3         1 LGJ       0.574600
     27 N27         -4.0050    -1.4740    11.5520 nd         1 LGJ      -0.577800
     28 N28         -2.2450    -6.5270    12.4310 nd         1 LGJ      -0.603300
     29 N29         -2.9870    -1.6970    10.6160 na         1 LGJ       0.714300
     30 N30         -0.1080    -6.9180    12.2580 ns         1 LGJ      -0.025400
     31 N31         -1.9820    -7.8180    12.9060 ns         1 LGJ       0.096100
     32 N32         -2.8090     0.0020     7.3040 ns         1 LGJ       0.010900
     33 O33         -0.0600    -9.0480    13.0980 o          1 LGJ      -0.705500
     34 O34         -1.5050    -1.5950     8.1320 o          1 LGJ      -0.637100
     35 O35          1.7380    -1.0920     4.6420 o          1 LGJ      -0.590800
     36 O36          3.6530     0.0030     3.5230 o          1 LGJ      -0.590800
     37 F37         -2.9270     2.1800     5.6040 f          1 LGJ      -0.128900
     38 F38         -7.1820    -0.9740    11.4370 f          1 LGJ      -0.202300
     39 F39         -5.9030    -0.0990    13.1140 f          1 LGJ      -0.202300
     40 F40         -6.4020     1.1680    11.2790 f          1 LGJ      -0.202300
     41 S41          2.2880    -0.0010     3.9150 sy         1 LGJ       0.873300
     42 H1          -0.5410    -0.0000    -0.9390 ha         1 LGJ       0.104000
     43 H2           1.9230    -0.0000    -0.9390 ha         1 LGJ       0.110000
     44 H4          -1.7760     0.0010     1.1930 ha         1 LGJ       0.114000
     45 H5          -0.0710    -1.9650     4.2500 ha         1 LGJ       0.156000
     46 H6           1.1860    -4.8370    11.2410 ha         1 LGJ       0.103000
     47 H7          -0.4840    -1.1100    10.0040 ha         1 LGJ       0.126000
     48 H8          -1.2960    -1.9610     6.3850 ha         1 LGJ       0.178000
     49 H9           3.1630    -0.0000     1.1890 ha         1 LGJ       0.134000
     50 H10         -1.5550     1.9690     3.3950 ha         1 LGJ       0.123000
     51 H11         -3.0360    -4.1500    11.6030 ha         1 LGJ       0.142000
     52 H12         -4.9990     0.3400     9.0620 ha         1 LGJ       0.145000
     53 H25          1.5810     1.3990     5.7350 h1         1 LGJ       0.066367
     54 H25A         1.0010     2.0110     4.1800 h1         1 LGJ       0.066367
     55 H25B         2.6890     2.2510     4.6510 h1         1 LGJ       0.066367
     56 HN30         0.8620    -6.7820    12.0550 hn         1 LGJ       0.203500
     57 HN31        -2.6550    -8.4650    13.2660 hn         1 LGJ       0.225500
     58 HN32        -3.5860     0.6190     7.4350 hn         1 LGJ       0.181500
     59 H3           1.4670    -2.5820    10.2970 ha         1 LGJ       0.116000
@<TRIPOS>BOND
     1     1     2 ar  
     2     1     4 ar  
     3     1    42 1   
     4     2     9 ar  
     5     2    43 1   
     6     3     6 ar  
     7     3     7 ar  
     8     3    59 1   
     9     4    14 ar  
    10     4    44 1   
    11     5     8 ar  
    12     5    13 ar  
    13     5    45 1   
    14     6    15 ar  
    15     6    46 1   
    16     7    16 ar  
    17     7    47 1   
    18     8    17 ar  
    19     8    48 1   
    20     9    19 ar  
    21     9    49 1   
    22    10    13 ar  
    23    10    18 ar  
    24    10    50 1   
    25    11    15 ar  
    26    11    16 ar  
    27    11    51 1   
    28    12    20 2   
    29    12    21 1   
    30    12    52 1   
    31    13    14 1   
    32    14    19 ar  
    33    15    22 1   
    34    16    29 1   
    35    17    18 ar  
    36    17    32 1   
    37    18    37 1   
    38    19    41 1   
    39    20    24 1   
    40    20    29 1   
    41    21    26 1   
    42    21    27 2   
    43    22    28 2   
    44    22    30 1   
    45    23    30 1   
    46    23    31 1   
    47    23    33 2   
    48    24    32 1   
    49    24    34 2   
    50    25    41 1   
    51    25    53 1   
    52    25    54 1   
    53    25    55 1   
    54    26    38 1   
    55    26    39 1   
    56    26    40 1   
    57    27    29 1   
    58    28    31 1   
    59    30    56 1   
    60    31    57 1   
    61    32    58 1   
    62    35    41 2   
    63    36    41 2   
@<TRIPOS>SUBSTRUCTURE
     1 LGJ         1 TEMP              0 ****  ****    0 ROOT
