@<TRIPOS>MOLECULE
molecule
   63    68     1     0     0
SMALL
bcc


@<TRIPOS>ATOM
      1 C1           0.0000     0.0000     0.0000 ca         1 LGK      -0.076000
      2 C2           1.3830     0.0000     0.0000 ca         1 LGK      -0.149000
      3 C3          -8.1170    -1.6910     6.4150 ca         1 LGK      -0.114000
      4 C4          -0.6930     0.0020     1.1930 ca         1 LGK      -0.135000
      5 C5          -1.5120     1.1050     4.0440 ca         1 LGK      -0.075500
      6 C6          -0.6550    -1.0970     4.5390 ca         1 LGK      -0.075500
      7 C7          -9.3150    -1.0070     6.4440 ca         1 LGK      -0.102000
      8 C8          -7.0720    -1.2970     7.2280 ca         1 LGK      -0.077000
      9 C9          -2.1990     1.1030     5.2390 ca         1 LGK      -0.134500
     10 C10         -1.3450    -1.0940     5.7330 ca         1 LGK      -0.134500
     11 C11          2.0790     0.0000     1.1960 ca         1 LGK      -0.026000
     12 C12         -8.4190     0.4850     8.1140 ca         1 LGK      -0.067000
     13 C13         -0.7360     0.0030     3.6860 cp         1 LGK      -0.118000
     14 C14          0.0030     0.0020     2.4000 cp         1 LGK       0.054000
     15 C15         -9.4740     0.0880     7.2950 ca         1 LGK      -0.106900
     16 C16         -4.1450     0.7140     9.6550 cc         1 LGK      -0.234600
     17 C17         -7.2190    -0.2080     8.0800 ca         1 LGK       0.004800
     18 C18         -2.1180     0.0050     6.0880 ca         1 LGK       0.059600
     19 C19          1.3970     0.0010     2.3950 ca         1 LGK      -0.286500
     20 C20         -4.8560     0.2770     8.5410 cd         1 LGK      -0.131900
     21 C21         -5.0440     0.8750    10.6880 cc         1 LGK       0.259600
     22 C22        -10.7570     0.8240     7.3270 cc         1 LGK       0.419500
     23 C23         -4.1670    -0.0000     7.2710 c          1 LGK       0.746100
     24 C24        -12.8360     1.4240     6.8720 c          1 LGK       0.765500
     25 C25         -2.6570     0.9430     9.5970 c3         1 LGK      -0.027100
     26 C26         -2.0550     0.0120     8.5440 c3         1 LGK       0.112000
     27 C27          1.8340     1.5720     4.7040 c3         1 LGK      -0.227300
     28 C28         -4.7060     1.3310    12.0850 c3         1 LGK       0.617600
     29 N29         -6.2450     0.5650    10.2520 nd         1 LGK      -0.437800
     30 N30        -11.0230     1.8570     8.0750 nd         1 LGK      -0.484300
     31 N31         -6.1570     0.1880     8.9020 na         1 LGK       0.212300
     32 N32        -11.8710     0.5360     6.5630 ns         1 LGK      -0.483400
     33 N33        -12.3400     2.2580     7.8090 ns         1 LGK      -0.325900
     34 N34         -2.8140     0.0060     7.2990 n          1 LGK      -0.392000
     35 O36        -13.9540     1.4690     6.3900 o          1 LGK      -0.655500
     36 O37          1.7420    -1.0940     4.6400 o          1 LGK      -0.625300
     37 O38          3.6520     0.0150     3.5240 o          1 LGK      -0.625300
     38 F39         -4.7950     2.7260    12.1540 f          1 LGK      -0.211967
     39 F40         -5.6050     0.7620    12.9920 f          1 LGK      -0.211967
     40 F41         -3.4040     0.9300    12.4040 f          1 LGK      -0.211967
     41 S42          2.2860     0.0020     3.9170 sy         1 LGK       1.196300
     42 H1          -0.5400    -0.0000    -0.9390 ha         1 LGK       0.136000
     43 H2           1.9230    -0.0010    -0.9390 ha         1 LGK       0.139000
     44 H3          -7.9960    -2.5410     5.7540 ha         1 LGK       0.149000
     45 H4          -1.7770     0.0020     1.1920 ha         1 LGK       0.144000
     46 H5          -1.5770     1.9600     3.3830 ha         1 LGK       0.158500
     47 H6          -0.0530    -1.9540     4.2620 ha         1 LGK       0.158500
     48 H7         -10.1330    -1.3200     5.8050 ha         1 LGK       0.133000
     49 H8          -6.1330    -1.8380     7.2020 ha         1 LGK       0.157000
     50 H9          -2.8020     1.9580     5.5180 ha         1 LGK       0.144000
     51 H10         -1.2820    -1.9490     6.3960 ha         1 LGK       0.144000
     52 H11          3.1630    -0.0000     1.1900 ha         1 LGK       0.161000
     53 H12         -8.5360     1.3340     8.7770 ha         1 LGK       0.174000
     54 H25         -2.4590     1.9730     9.3250 hc         1 LGK       0.074200
     55 H25A        -2.2190     0.7270    10.5640 hc         1 LGK       0.074200
     56 H26         -1.0430     0.3340     8.3330 h1         1 LGK       0.058200
     57 H26A        -2.0310    -0.9950     8.9430 h1         1 LGK       0.058200
     58 H27          1.6740     1.4120     5.7630 h1         1 LGK       0.101700
     59 H27A         2.6340     2.2890     4.5640 h1         1 LGK       0.101700
     60 H27B         0.9250     1.9530     4.2550 h1         1 LGK       0.101700
     61 HN32       -11.9490    -0.2060     5.8970 hn         1 LGK       0.363500
     62 HN33       -12.8230     3.0240     8.2360 hn         1 LGK       0.395500
     63 O35         -4.7830    -0.2240     6.2470 o          1 LGK      -0.611500
@<TRIPOS>BOND
     1     1     2 ar
     2     1     4 ar
     3     2    11 ar
     4     3     7 ar
     5     3     8 ar
     6     4    14 ar
     7     5     9 ar
     8     5    13 ar
     9     6    10 ar
    10     6    13 ar
    11     7    15 ar
    12     8    17 ar
    13     9    18 ar
    14    10    18 ar
    15    11    19 ar
    16    12    15 ar
    17    12    17 ar
    18    13    14 1
    19    14    19 ar
    20    15    22 1
    21    16    20 2
    22    16    21 1
    23    16    25 1
    24    17    31 1
    25    18    34 1
    26    19    41 1
    27    20    23 1
    28    20    31 1
    29    21    28 1
    30    21    29 2
    31    22    30 2
    32    22    32 1
    33    23    34 1
    34    23    63 2
    35    24    32 1
    36    24    33 1
    37    24    35 2
    38    25    26 1
    39    26    34 1
    40    27    41 1
    41    28    38 1
    42    28    39 1
    43    28    40 1
    44    29    31 1
    45    30    33 1
    46    36    41 2
    47    37    41 2
    48     1    42 1
    49     2    43 1
    50     3    44 1
    51     4    45 1
    52     5    46 1
    53     6    47 1
    54     7    48 1
    55     8    49 1
    56     9    50 1
    57    10    51 1
    58    11    52 1
    59    12    53 1
    60    25    54 1
    61    25    55 1
    62    26    56 1
    63    26    57 1
    64    27    58 1
    65    27    59 1
    66    27    60 1
    67    32    61 1
    68    33    62 1
@<TRIPOS>SUBSTRUCTURE
     1 LGK         1 TEMP              0 ****  ****    0 ROOT
