@<TRIPOS>MOLECULE
LGL
   72    78     1     0     0
SMALL
bcc


@<TRIPOS>ATOM
      1 C1           0.0000     0.0000     0.0000 ca         1 LGL      -0.100000
      2 C2           1.3840     0.0000     0.0000 ca         1 LGL      -0.100000
      3 C3          -8.0960    -1.7450     6.4250 ca         1 LGL      -0.088000
      4 C4          -0.6920     0.0010     1.1940 ca         1 LGL      -0.091000
      5 C5          -1.6610     1.0060     3.9590 ca         1 LGL      -0.082000
      6 C6          -0.5020    -1.0020     4.6260 ca         1 LGL      -0.082000
      7 C7          -9.3020    -1.0750     6.4550 ca         1 LGL      -0.072000
      8 C8           2.0810     0.0000     1.1950 ca         1 LGL      -0.100000
      9 C9          -7.0530    -1.3380     7.2350 ca         1 LGL      -0.035000
     10 C10         -2.3470     1.0040     5.1550 ca         1 LGL      -0.093000
     11 C11         -1.1900    -1.0010     5.8200 ca         1 LGL      -0.093000
     12 C12         -8.4200     0.4300     8.1220 ca         1 LGL      -0.022000
     13 C13         -0.7340     0.0020     3.6870 cp         1 LGL      -0.007000
     14 C14          0.0050     0.0020     2.4010 cp         1 LGL      -0.018000
     15 C15         -9.4720     0.0180     7.3050 ca         1 LGL      -0.111900
     16 C16         -4.1460     0.7090     9.6540 cc         1 LGL      -0.242600
     17 C17          1.3980     0.0010     2.3940 ca         1 LGL      -0.079300
     18 C18         -7.2120    -0.2500     8.0850 ca         1 LGL      -0.193200
     19 C19         -2.1140     0.0020     6.0890 ca         1 LGL      -0.095400
     20 C20         -4.8540     0.2600     8.5430 cd         1 LGL      -0.338900
     21 C21         -5.0460     0.8670    10.6880 cc         1 LGL       0.265600
     22 C22        -10.7630     0.7390     7.3380 cc         1 LGL       0.288500
     23 C23         -4.1620    -0.0160     7.2740 c          1 LGL       0.678100
     24 C24        -12.8510     1.3140     6.8860 c          1 LGL       0.536500
     25 C25         -2.6610     0.9530     9.5940 c3         1 LGL       0.049900
     26 C26          3.0290     2.8160     5.9370 c3         1 LGL      -0.026900
     27 C27          3.1530     3.4640     4.5430 c3         1 LGL      -0.026900
     28 C28         -2.0510     0.0220     8.5450 c3         1 LGL       0.043000
     29 C29          2.6960     1.3340     5.6610 c3         1 LGL       0.146800
     30 C30          2.8840     2.3200     3.5420 c3         1 LGL       0.146800
     31 C31          2.1590     0.0010     3.6950 c3         1 LGL       0.191100
     32 C32         -4.7110     1.3330    12.0810 c3         1 LGL       0.575600
     33 N33         -6.2450     0.5430    10.2540 nd         1 LGL      -0.602800
     34 N34        -11.0410     1.7690     8.0860 nd         1 LGL      -0.600300
     35 N35         -6.1530     0.1600     8.9040 na         1 LGL       0.741300
     36 N36        -11.8760     0.4370     6.5780 ns         1 LGL      -0.026400
     37 N37        -12.3630     2.1550     7.8210 ns         1 LGL       0.094100
     38 N38         -2.8110     0.0010     7.3010 n          1 LGL       0.007000
     39 N39          2.0810     1.3330     4.3090 n3         1 LGL      -0.533600
     40 O41        -13.9700     1.3450     6.4060 o          1 LGL      -0.705500
     41 F42         -4.8130     2.7270    12.1440 f          1 LGL      -0.203300
     42 F43         -5.6050     0.7590    12.9920 f          1 LGL      -0.203300
     43 F44         -3.4060     0.9450    12.4010 f          1 LGL      -0.203300
     44 H1          -0.5410    -0.0010    -0.9390 ha         1 LGL       0.104000
     45 H2           1.9230    -0.0010    -0.9390 ha         1 LGL       0.103000
     46 H3          -7.9670    -2.5940     5.7640 ha         1 LGL       0.115000
     47 H4          -1.7760     0.0010     1.1930 ha         1 LGL       0.111000
     48 H5          -1.8430     1.7880     3.2320 ha         1 LGL       0.113000
     49 H6           0.2190    -1.7840     4.4160 ha         1 LGL       0.113000
     50 H7         -10.1160    -1.3980     5.8180 ha         1 LGL       0.102000
     51 H8           3.1640    -0.0010     1.1890 ha         1 LGL       0.105000
     52 H9          -6.1090    -1.8680     7.2070 ha         1 LGL       0.128000
     53 H10         -3.0680     1.7850     5.3670 ha         1 LGL       0.110500
     54 H11         -1.0100    -1.7810     6.5490 ha         1 LGL       0.110500
     55 H12         -8.5460     1.2780     8.7840 ha         1 LGL       0.144000
     56 H25         -2.4730     1.9830     9.3170 hc         1 LGL       0.039200
     57 H25A        -2.2210     0.7450    10.5620 hc         1 LGL       0.039200
     58 H26          2.2270     3.2820     6.4970 hc         1 LGL       0.017450
     59 H26A         3.9670     2.8960     6.4730 hc         1 LGL       0.017450
     60 H27          4.1520     3.8600     4.4010 hc         1 LGL       0.017450
     61 H27A         2.4120     4.2460     4.4260 hc         1 LGL       0.017450
     62 H28         -1.0420     0.3530     8.3310 h1         1 LGL       0.026700
     63 H28A        -2.0170    -0.9830     8.9480 h1         1 LGL       0.026700
     64 H29          3.6010     0.7380     5.6630 h1         1 LGL       0.012950
     65 H29A         1.9910     0.9630     6.3950 h1         1 LGL       0.012950
     66 H30          3.8180     1.8750     3.2190 h1         1 LGL       0.012950
     67 H30A         2.3200     2.6860     2.6930 h1         1 LGL       0.012950
     68 H31          3.1960    -0.2500     3.5070 h1         1 LGL       0.020700
     69 H31A         1.7270    -0.7320     4.3660 h1         1 LGL       0.020700
     70 HN36       -11.9470    -0.3070     5.9120 hn         1 LGL       0.203500
     71 HN37       -12.8540     2.9160     8.2470 hn         1 LGL       0.225500
     72 O40         -4.7770    -0.2510     6.2510 o          1 LGL      -0.670500
@<TRIPOS>BOND
     1     1     2 ar  
     2     1     4 ar  
     3     1    44 1   
     4     2     8 ar  
     5     2    45 1   
     6     3     7 ar  
     7     3     9 ar  
     8     3    46 1   
     9     4    14 ar  
    10     4    47 1   
    11     5    10 ar  
    12     5    13 ar  
    13     5    48 1   
    14     6    11 ar  
    15     6    13 ar  
    16     6    49 1   
    17     7    15 ar  
    18     7    50 1   
    19     8    17 ar  
    20     8    51 1   
    21     9    18 ar  
    22     9    52 1   
    23    10    19 ar  
    24    10    53 1   
    25    11    19 ar  
    26    11    54 1   
    27    12    15 ar  
    28    12    18 ar  
    29    12    55 1   
    30    13    14 1   
    31    14    17 ar  
    32    15    22 1   
    33    16    20 2   
    34    16    21 1   
    35    16    25 1   
    36    17    31 1   
    37    18    35 1   
    38    19    38 1   
    39    20    23 1   
    40    20    35 1   
    41    21    32 1   
    42    21    33 2   
    43    22    34 2   
    44    22    36 1   
    45    23    38 1   
    46    23    72 2   
    47    24    36 1   
    48    24    37 1   
    49    24    40 2   
    50    25    28 1   
    51    25    56 1   
    52    25    57 1   
    53    26    27 1   
    54    26    29 1   
    55    26    58 1   
    56    26    59 1   
    57    27    30 1   
    58    27    60 1   
    59    27    61 1   
    60    28    38 1   
    61    28    62 1   
    62    28    63 1   
    63    29    39 1   
    64    29    64 1   
    65    29    65 1   
    66    30    39 1   
    67    30    66 1   
    68    30    67 1   
    69    31    39 1   
    70    31    68 1   
    71    31    69 1   
    72    32    41 1   
    73    32    42 1   
    74    32    43 1   
    75    33    35 1   
    76    34    37 1   
    77    36    70 1   
    78    37    71 1   
@<TRIPOS>SUBSTRUCTURE
     1 LGL         1 TEMP              0 ****  ****    0 ROOT
