@<TRIPOS>MOLECULE
LGM
   72    78     1     0     0
SMALL
bcc


@<TRIPOS>ATOM
      1 C1           0.0000     0.0000     0.0000 ca         1 LGM      -0.100000
      2 C2           1.3820     0.0000     0.0000 ca         1 LGM      -0.101000
      3 C3          -8.0980    -1.7510     6.4200 ca         1 LGM      -0.089000
      4 C4          -0.6930    -0.0010     1.1940 ca         1 LGM      -0.091000
      5 C5          -1.6640     1.0040     3.9590 ca         1 LGM      -0.082000
      6 C6          -0.5040    -1.0060     4.6240 ca         1 LGM      -0.082000
      7 C7          -9.3040    -1.0810     6.4500 ca         1 LGM      -0.080000
      8 C8           2.0800     0.0000     1.1950 ca         1 LGM      -0.100000
      9 C9          -7.0560    -1.3430     7.2310 ca         1 LGM      -0.042000
     10 C10         -2.3500     1.0010     5.1540 ca         1 LGM      -0.094500
     11 C11         -1.1930    -1.0040     5.8190 ca         1 LGM      -0.094500
     12 C12         -8.4250     0.4240     8.1180 ca         1 LGM      -0.027000
     13 C13         -0.7360    -0.0000     3.6870 cp         1 LGM      -0.011000
     14 C14          0.0030    -0.0000     2.4000 cp         1 LGM      -0.016000
     15 C15         -9.4750     0.0120     7.3020 ca         1 LGM      -0.114900
     16 C16         -4.1510     0.7040     9.6530 cc         1 LGM      -0.299600
     17 C17          1.3970    -0.0000     2.3950 ca         1 LGM      -0.080300
     18 C18         -7.2160    -0.2560     8.0820 ca         1 LGM      -0.175200
     19 C19         -2.1170    -0.0020     6.0890 ca         1 LGM      -0.090400
     20 C20         -4.8580     0.2550     8.5400 cd         1 LGM      -0.334900
     21 C21         -5.0510     0.8590    10.6860 cc         1 LGM       0.383600
     22 C22        -10.7680     0.7330     7.3340 cc         1 LGM       0.292500
     23 C23         -4.1660    -0.0210     7.2720 c          1 LGM       0.681100
     24 C24        -12.8540     1.3080     6.8820 c          1 LGM       0.535500
     25 C25         -2.6660     0.9470     9.5940 c3         1 LGM       0.070900
     26 C26          3.0250     2.8130     5.9390 c3         1 LGM      -0.026900
     27 C27          3.1500     3.4630     4.5450 c3         1 LGM      -0.026900
     28 C28         -2.0550     0.0160     8.5440 c3         1 LGM       0.042000
     29 C29          2.6930     1.3320     5.6620 c3         1 LGM       0.146300
     30 C30          2.8820     2.3180     3.5440 c3         1 LGM       0.146300
     31 C31         -4.7170     1.3250    12.0800 c3         1 LGM      -0.005400
     32 C32          2.1570    -0.0010     3.6960 c3         1 LGM       0.191100
     33 N33         -6.2500     0.5350    10.2520 nd         1 LGM      -0.662800
     34 N34        -11.0450     1.7630     8.0830 nd         1 LGM      -0.604300
     35 N35         -6.1570     0.1540     8.9020 na         1 LGM       0.714300
     36 N36        -11.8800     0.4300     6.5730 ns         1 LGM      -0.025400
     37 N37        -12.3670     2.1480     7.8180 ns         1 LGM       0.093100
     38 N38         -2.8130    -0.0030     7.3000 n          1 LGM       0.001000
     39 N39          2.0780     1.3310     4.3100 n3         1 LGM      -0.532600
     40 O41        -13.9740     1.3380     6.4010 o          1 LGM      -0.709500
     41 H1          -0.5410    -0.0000    -0.9390 ha         1 LGM       0.103000
     42 H2           1.9220     0.0000    -0.9390 ha         1 LGM       0.102000
     43 H3          -7.9680    -2.5990     5.7590 ha         1 LGM       0.113000
     44 H4          -1.7760    -0.0010     1.1930 ha         1 LGM       0.111000
     45 H5          -1.8450     1.7860     3.2320 ha         1 LGM       0.112500
     46 H6           0.2160    -1.7870     4.4140 ha         1 LGM       0.112500
     47 H7         -10.1190    -1.4040     5.8130 ha         1 LGM       0.100000
     48 H8           3.1630     0.0000     1.1890 ha         1 LGM       0.105000
     49 H9          -6.1120    -1.8730     7.2040 ha         1 LGM       0.128000
     50 H10         -3.0710     1.7810     5.3660 ha         1 LGM       0.110000
     51 H11         -1.0130    -1.7850     6.5490 ha         1 LGM       0.110000
     52 H12         -8.5510     1.2710     8.7810 ha         1 LGM       0.143000
     53 H25         -2.2260     0.7390    10.5620 hc         1 LGM       0.025700
     54 H25A        -2.4780     1.9770     9.3180 hc         1 LGM       0.025700
     55 H26          2.2230     3.2790     6.4990 hc         1 LGM       0.017200
     56 H26A         3.9630     2.8930     6.4750 hc         1 LGM       0.017200
     57 H27          4.1480     3.8590     4.4040 hc         1 LGM       0.017200
     58 H27A         2.4080     4.2440     4.4280 hc         1 LGM       0.017200
     59 H28         -2.0220    -0.9890     8.9470 h1         1 LGM       0.022700
     60 H28A        -1.0460     0.3470     8.3310 h1         1 LGM       0.022700
     61 H29          3.5980     0.7370     5.6650 h1         1 LGM       0.012950
     62 H29A         1.9880     0.9610     6.3960 h1         1 LGM       0.012950
     63 H30          2.3180     2.6850     2.6950 h1         1 LGM       0.012950
     64 H30A         3.8170     1.8740     3.2220 h1         1 LGM       0.012950
     65 H31         -4.0120     0.6370    12.5320 hc         1 LGM       0.012367
     66 H31A        -4.2770     2.3140    12.0350 hc         1 LGM       0.012367
     67 H31B        -5.6210     1.3590    12.6760 hc         1 LGM       0.012367
     68 H32          3.1940    -0.2510     3.5080 h1         1 LGM       0.020200
     69 H32A         1.7250    -0.7340     4.3660 h1         1 LGM       0.020200
     70 HN36       -11.9500    -0.3140     5.9070 hn         1 LGM       0.203500
     71 HN37       -12.8580     2.9090     8.2440 hn         1 LGM       0.224500
     72 O40         -4.7810    -0.2550     6.2490 o          1 LGM      -0.674500
@<TRIPOS>BOND
     1     1     2 ar  
     2     1     4 ar  
     3     1    41 1   
     4     2     8 ar  
     5     2    42 1   
     6     3     7 ar  
     7     3     9 ar  
     8     3    43 1   
     9     4    14 ar  
    10     4    44 1   
    11     5    10 ar  
    12     5    13 ar  
    13     5    45 1   
    14     6    11 ar  
    15     6    13 ar  
    16     6    46 1   
    17     7    15 ar  
    18     7    47 1   
    19     8    17 ar  
    20     8    48 1   
    21     9    18 ar  
    22     9    49 1   
    23    10    19 ar  
    24    10    50 1   
    25    11    19 ar  
    26    11    51 1   
    27    12    15 ar  
    28    12    18 ar  
    29    12    52 1   
    30    13    14 1   
    31    14    17 ar  
    32    15    22 1   
    33    16    20 2   
    34    16    21 1   
    35    16    25 1   
    36    17    32 1   
    37    18    35 1   
    38    19    38 1   
    39    20    23 1   
    40    20    35 1   
    41    21    31 1   
    42    21    33 2   
    43    22    34 2   
    44    22    36 1   
    45    23    38 1   
    46    23    72 2   
    47    24    36 1   
    48    24    37 1   
    49    24    40 2   
    50    25    28 1   
    51    25    53 1   
    52    25    54 1   
    53    26    27 1   
    54    26    29 1   
    55    26    55 1   
    56    26    56 1   
    57    27    30 1   
    58    27    57 1   
    59    27    58 1   
    60    28    38 1   
    61    28    59 1   
    62    28    60 1   
    63    29    39 1   
    64    29    61 1   
    65    29    62 1   
    66    30    39 1   
    67    30    63 1   
    68    30    64 1   
    69    31    65 1   
    70    31    66 1   
    71    31    67 1   
    72    32    39 1   
    73    32    68 1   
    74    32    69 1   
    75    33    35 1   
    76    34    37 1   
    77    36    70 1   
    78    37    71 1   
@<TRIPOS>SUBSTRUCTURE
     1 LGM         1 TEMP              0 ****  ****    0 ROOT
