@<TRIPOS>MOLECULE
LGS
   50    51     1     0     0
SMALL
bcc


@<TRIPOS>ATOM
      1 O4           0.0000     0.0000     0.0000 oh         1 LGS      -0.580800
      2 C4           1.4290     0.0000     0.0000 c3         1 LGS       0.164100
      3 C5           1.9430     0.0000     1.4430 c3         1 LGS       0.091500
      4 C6           1.7880    -1.3980     2.0730 c3         1 LGS       0.210400
      5 O6           3.0510    -1.5740     2.7520 os         1 LGS      -0.421400
      6 C3           1.9420     1.2610    -0.7020 c3         1 LGS       0.138100
      7 O3           1.4020     1.3170    -2.0240 oh         1 LGS      -0.566800
      8 C2           3.4690     1.2470    -0.7820 c3         1 LGS       0.125100
      9 O2           3.9190     2.4090    -1.4840 oh         1 LGS      -0.559800
     10 C1           4.0640     1.2450     0.6350 c3         1 LGS       0.401300
     11 O1           5.4720     1.0140     0.5710 oh         1 LGS      -0.525800
     12 N1           3.4140     0.1610     1.3770 nh         1 LGS      -0.507600
     13 C7           3.9800    -0.8810     2.0530 c2         1 LGS       0.673500
     14 N2           5.2480    -1.1690     2.0290 n2         1 LGS      -0.637900
     15 C8           5.7540    -2.3140     2.7910 c3         1 LGS       0.178800
     16 C9           6.2980    -3.3700     1.8280 c3         1 LGS      -0.030400
     17 C10          6.8250    -4.5640     2.6250 c3         1 LGS      -0.028400
     18 C11          7.3690    -5.6210     1.6600 c3         1 LGS      -0.028400
     19 C12          7.8970    -6.8150     2.4570 c3         1 LGS      -0.029400
     20 C13          8.4410    -7.8720     1.4940 c3         1 LGS      -0.030400
     21 C14          8.9680    -9.0660     2.2910 c3         1 LGS      -0.028400
     22 C15          9.5120   -10.1220     1.3270 c3         1 LGS       0.005900
     23 H4          -0.3140    -0.6650    -0.5900 ho         1 LGS       0.402000
     24 HA           1.7970    -0.8780    -0.5160 h1         1 LGS       0.027700
     25 H5           1.4770     0.7720     2.0440 h1         1 LGS       0.052700
     26 H3           1.6240     2.1330    -0.1440 h1         1 LGS       0.007700
     27 H61C         1.7590    -2.1140     1.2610 h1         1 LGS       0.036700
     28 H62C         1.0230    -1.3220     2.8360 h1         1 LGS       0.036700
     29 HB           0.8820     2.0980    -2.1180 ho         1 LGS       0.397000
     30 H2           3.7930     0.3570    -1.3070 h1         1 LGS       0.072700
     31 HC           3.7800     3.1730    -0.9490 ho         1 LGS       0.379000
     32 H81C         6.5470    -1.9850     3.4520 h1         1 LGS       0.007700
     33 H82C         4.9490    -2.7400     3.3780 h1         1 LGS       0.007700
     34 H91C         7.1020    -2.9440     1.2410 hc         1 LGS       0.019200
     35 H92C         5.5040    -3.6990     1.1670 hc         1 LGS       0.019200
     36 H101         6.0210    -4.9900     3.2120 hc         1 LGS       0.012700
     37 H102         7.6190    -4.2350     3.2850 hc         1 LGS       0.012700
     38 H111         6.5750    -5.9500     1.0000 hc         1 LGS       0.015200
     39 H112         8.1730    -5.1940     1.0730 hc         1 LGS       0.015200
     40 H121         7.0930    -7.2420     3.0440 hc         1 LGS       0.014200
     41 H122         8.6900    -6.4860     3.1180 hc         1 LGS       0.014200
     42 H131         9.2460    -7.4460     0.9080 hc         1 LGS       0.014200
     43 H132         7.6480    -8.2000     0.8330 hc         1 LGS       0.014200
     44 H141         9.7600    -8.7370     2.9530 hc         1 LGS       0.011700
     45 H142         8.1620    -9.4930     2.8770 hc         1 LGS       0.011700
     46 H151         9.8890   -10.9670     1.8920 hc         1 LGS       0.000033
     47 H152         8.7190   -10.4530     0.6690 hc         1 LGS       0.000033
     48 H153        10.3150    -9.6940     0.7390 hc         1 LGS       0.000033
     49 H154         3.8620     2.1930     1.1190 h2         1 LGS      -0.008300
     50 H155         5.9310     1.8090     0.7870 ho         1 LGS       0.393000
@<TRIPOS>BOND
     1     1     2 1   
     2     1    23 1   
     3     2     3 1   
     4     2     6 1   
     5     2    24 1   
     6     3     4 1   
     7     3    12 1   
     8     3    25 1   
     9     4     5 1   
    10     4    27 1   
    11     4    28 1   
    12     5    13 1   
    13     6     7 1   
    14     6     8 1   
    15     6    26 1   
    16     7    29 1   
    17     8     9 1   
    18     8    10 1   
    19     8    30 1   
    20     9    31 1   
    21    10    11 1   
    22    10    12 1   
    23    10    49 1   
    24    11    50 1   
    25    12    13 1   
    26    13    14 2   
    27    14    15 1   
    28    15    16 1   
    29    15    32 1   
    30    15    33 1   
    31    16    17 1   
    32    16    34 1   
    33    16    35 1   
    34    17    18 1   
    35    17    36 1   
    36    17    37 1   
    37    18    19 1   
    38    18    38 1   
    39    18    39 1   
    40    19    20 1   
    41    19    40 1   
    42    19    41 1   
    43    20    21 1   
    44    20    42 1   
    45    20    43 1   
    46    21    22 1   
    47    21    44 1   
    48    21    45 1   
    49    22    46 1   
    50    22    47 1   
    51    22    48 1   
@<TRIPOS>SUBSTRUCTURE
     1 LGS         1 TEMP              0 ****  ****    0 ROOT
