@<TRIPOS>MOLECULE
LGT
   22    21     1     0     0
SMALL
bcc


@<TRIPOS>ATOM
      1 O1A         0.1880   -0.3710   -0.1250 o         1 LGT     -0.853800
      2 C1          1.4090   -0.0470   -0.2580 c         1 LGT      0.893600
      3 O1B         1.9500    0.2030   -1.3700 o         1 LGT     -0.853800
      4 C2          2.2560    0.0520    1.0350 c3        1 LGT     -0.008400
      5 O2          1.6000    0.9050    1.9610 oh        1 LGT     -0.624800
      6 C3          2.4900   -1.3490    1.6250 c3        1 LGT      0.127100
      7 O3          1.2720   -1.9410    2.0590 oh        1 LGT     -0.620300
      8 C4          3.4460   -1.3550    2.8380 c3        1 LGT      0.127100
      9 O4          2.7570   -1.0310    4.0270 oh        1 LGT     -0.620300
     10 C5          4.1730   -2.7110    2.9380 c3        1 LGT     -0.008400
     11 O5          5.2610   -2.7190    2.0270 oh        1 LGT     -0.624800
     12 C6          4.6490   -3.0380    4.3730 c         1 LGT      0.893600
     13 O6A         3.7880   -3.3540    5.2410 o         1 LGT     -0.853800
     14 O6B         5.8980   -3.0080    4.5880 o         1 LGT     -0.853800
     15 H2          3.2390    0.5490    0.8260 h1        1 LGT      0.058200
     16 HO2         0.7440    0.4910    2.1330 ho        1 LGT      0.408500
     17 H3          2.9370   -1.9900    0.8120 h1        1 LGT      0.047200
     18 HO3         0.6010   -1.7200    1.3930 ho        1 LGT      0.427000
     19 H4          4.1990   -0.5290    2.7020 h1        1 LGT      0.047200
     20 HO4         2.3690   -1.8530    4.3610 ho        1 LGT      0.427000
     21 H5          3.4770   -3.5260    2.5940 h1        1 LGT      0.058200
     22 HO5         6.0630   -2.5720    2.5540 ho        1 LGT      0.408500
@<TRIPOS>BOND
     1    1    2 1   
     2    2    3 1   
     3    2    4 1   
     4    4    5 1   
     5    4    6 1   
     6    4   15 1   
     7    5   16 1   
     8    6    7 1   
     9    6    8 1   
    10    6   17 1   
    11    7   18 1   
    12    8    9 1   
    13    8   10 1   
    14    8   19 1   
    15    9   20 1   
    16   10   11 1   
    17   10   12 1   
    18   10   21 1   
    19   11   22 1   
    20   12   13 1   
    21   12   14 1   
@<TRIPOS>SUBSTRUCTURE
     1 LGT         1 TEMP              0 ****  ****    0 ROOT
