@<TRIPOS>MOLECULE
molecule
   22    21     1     0     0
SMALL
bcc


@<TRIPOS>ATOM
      1 O1A          0.0000     0.0000     0.0000 o          1 LGT      -0.860550
      2 C1           1.2070     0.0000     0.0000 c          1 LGT       0.869100
      3 O1B          1.8800     0.0050    -1.1630 o          1 LGT      -0.860550
      4 C2           1.9620     0.0000     1.3050 c3         1 LGT       0.022100
      5 O2           1.0370     0.1180     2.3880 oh         1 LGT      -0.594300
      6 C3           2.7440    -1.3070     1.4420 c3         1 LGT       0.171100
      7 O3           1.8520    -2.4140     1.3010 oh         1 LGT      -0.564800
      8 C4           3.4090    -1.3620     2.8200 c3         1 LGT       0.171100
      9 O4           2.4190    -1.1820     3.8340 oh         1 LGT      -0.564800
     10 C5           4.0880    -2.7200     3.0050 c3         1 LGT       0.022100
     11 O5           5.0780    -2.9000     1.9900 oh         1 LGT      -0.594300
     12 C6           4.7420    -2.7740     4.3610 c          1 LGT       0.869100
     13 O6A          3.9890    -2.7280     5.4720 o          1 LGT      -0.860550
     14 O6B          5.9450    -2.8570     4.4490 o          1 LGT      -0.860550
     15 H2           2.6500     0.8370     1.3250 h1         1 LGT       0.026200
     16 HO2          0.7230     1.0050     2.4380 ho         1 LGT       0.370000
     17 H3           3.5050    -1.3550     0.6720 h1         1 LGT       0.039700
     18 HO3          1.9990    -2.8310     0.4680 ho         1 LGT       0.381500
     19 H4           4.1500    -0.5750     2.8950 h1         1 LGT       0.039700
     20 HO4          2.7310    -0.5630     4.4720 ho         1 LGT       0.381500
     21 H5           3.3470    -3.5070     2.9310 h1         1 LGT       0.026200
     22 HO5          5.2910    -3.8160     1.9170 ho         1 LGT       0.370000
@<TRIPOS>BOND
     1     1     2 1
     2     2     4 1
     3     2     3 1
     4     4     6 1
     5     4     5 1
     6     4    15 1
     7     5    16 1
     8     6     8 1
     9     6     7 1
    10     6    17 1
    11     7    18 1
    12     8    10 1
    13     8     9 1
    14     8    19 1
    15     9    20 1
    16    10    11 1
    17    10    12 1
    18    10    21 1
    19    11    22 1
    20    12    14 1
    21    12    13 1
@<TRIPOS>SUBSTRUCTURE
     1 LGT         1 TEMP              0 ****  ****    0 ROOT
