@<TRIPOS>MOLECULE
molecule
   46    50     1     0     0
SMALL
bcc


@<TRIPOS>ATOM
      1 C1           0.0000     0.0000     0.0000 cc         1 LGV      -0.197000
      2 C2          -0.8320    -0.0000     9.4780 ca         1 LGV      -0.010000
      3 C3           1.3960     0.0000     0.0000 cc         1 LGV      -0.149000
      4 C4          -2.1120     0.0010    10.0000 ca         1 LGV      -0.292300
      5 C5           5.6650     0.0010     3.2070 cc         1 LGV      -0.335300
      6 C6          -1.8250     0.0010     7.2830 ca         1 LGV       0.479200
      7 C7          -0.4180     0.0050     1.2930 cd         1 LGV      -0.098100
      8 C8          -0.6830     0.0000     8.0850 ca         1 LGV      -0.290900
      9 C9           1.7950     0.0000     1.3220 cd         1 LGV      -0.294600
     10 C10          7.0460     0.0010     3.4260 cc         1 LGV       0.383600
     11 C11          5.4550     0.0000     1.8620 cd         1 LGV       0.134300
     12 C12         -3.1960    -0.0040     9.1360 ca         1 LGV       0.663500
     13 C13          3.0560     0.0010     1.9640 cd         1 LGV       0.809200
     14 C14          1.9980     0.0000     4.0260 cc         1 LGV       0.691300
     15 C15          0.6630     0.0000     7.4750 c          1 LGV       0.681700
     16 C16          7.9370    -1.3500     5.4550 cx         1 LGV      -0.127400
     17 C17          6.8800    -0.3810     5.9890 cx         1 LGV      -0.127400
     18 C18          7.7240     0.0010     4.7710 cx         1 LGV      -0.157000
     19 C19          2.1280     0.0010     5.5280 c3         1 LGV       0.095700
     20 N20         -3.0250    -0.0090     7.8250 nb         1 LGV      -0.730000
     21 N21          6.6730     0.0000     1.2590 na         1 LGV      -0.073600
     22 N22          3.1060     0.0010     3.2860 nc         1 LGV      -0.842000
     23 N23          0.8060     0.0160     3.4980 nd         1 LGV      -0.601800
     24 N24          7.6490     0.0010     2.2640 nd         1 LGV      -0.495800
     25 N25          0.6560     0.0090     2.1030 na         1 LGV       0.245200
     26 N26          4.2190    -0.0000     1.2200 nu         1 LGV      -0.721300
     27 N27          0.7940     0.0000     6.1330 ns         1 LGV      -0.584900
     28 O28          1.6510     0.0010     8.1820 o          1 LGV      -0.607100
     29 F29         -4.4500    -0.0040     9.6420 f          1 LGV      -0.214200
     30 H1          -0.6370     0.0460    -0.8750 ha         1 LGV       0.164000
     31 H3           2.0420    -0.0030    -0.8700 ha         1 LGV       0.149000
     32 H4          -2.2660     0.0030    11.0720 ha         1 LGV       0.160000
     33 H5           4.8980     0.0010     3.9720 ha         1 LGV       0.204000
     34 H6          -1.7230    -0.0020     6.2050 h4         1 LGV       0.031100
     35 H7          -1.4510     0.0060     1.6190 h4         1 LGV       0.183000
     36 H16          8.8370    -1.4350     6.0520 hc         1 LGV       0.078450
     37 H16A         7.5550    -2.2100     4.9190 hc         1 LGV       0.078450
     38 H17          7.1340     0.1260     6.9120 hc         1 LGV       0.078450
     39 H17A         5.8520    -0.6490     5.7790 hc         1 LGV       0.078450
     40 H18          8.4960     0.7350     4.9680 hc         1 LGV       0.094700
     41 H19          2.6680     0.8850     5.8430 h1         1 LGV       0.085700
     42 H19A         2.6680    -0.8840     5.8440 h1         1 LGV       0.085700
     43 HN26         4.1740     0.0110     0.2200 hn         1 LGV       0.462800
     44 HN27        -0.0190    -0.0010     5.5500 hn         1 LGV       0.338500
     45 HN21         6.8430    -0.0000     0.2730 hn         1 LGV       0.323700
     46 H2           0.0330     0.0020    10.1300 ha         1 LGV       0.171000
@<TRIPOS>BOND
     1     7     1 2
     2     1     3 1
     3     1    30 1
     4     8     2 ar
     5     2     4 ar
     6     2    46 1
     7     9     3 2
     8     3    31 1
     9     4    12 ar
    10     4    32 1
    11     5    11 2
    12     5    10 1
    13     5    33 1
    14     8     6 ar
    15     6    20 ar
    16     6    34 1
    17     7    25 1
    18     7    35 1
    19    15     8 1
    20    25     9 1
    21     9    13 1
    22    18    10 1
    23    10    24 2
    24    26    11 1
    25    11    21 1
    26    20    12 ar
    27    12    29 1
    28    22    13 2
    29    13    26 1
    30    19    14 1
    31    23    14 2
    32    14    22 1
    33    27    15 1
    34    28    15 2
    35    16    17 1
    36    16    18 1
    37    16    36 1
    38    16    37 1
    39    17    18 1
    40    17    38 1
    41    17    39 1
    42    18    40 1
    43    19    27 1
    44    19    41 1
    45    19    42 1
    46    21    24 1
    47    23    25 1
    48    26    43 1
    49    27    44 1
    50    21    45 1
@<TRIPOS>SUBSTRUCTURE
     1 LGV         1 TEMP              0 ****  ****    0 ROOT
