@<TRIPOS>MOLECULE
LGW
   53    58     1     0     0
SMALL
bcc


@<TRIPOS>ATOM
      1 N1           0.0000     0.0000     0.0000 na         1 LGW       0.782200
      2 C2           1.3810     0.0000     0.0000 cc         1 LGW      -0.485600
      3 C3           1.7990     0.0000     1.3170 cd         1 LGW      -0.126000
      4 C4           0.6480    -0.0010     2.1060 cd         1 LGW      -0.158000
      5 C5          -0.4280    -0.0000     1.2760 cc         1 LGW      -0.302100
      6 N6          -0.6640    -0.0040    -1.2350 nc         1 LGW      -0.746800
      7 C7           0.0210    -0.0020    -2.3460 cd         1 LGW       0.698300
      8 N8           1.3520     0.0040    -2.3600 nd         1 LGW      -0.765000
      9 C9           2.0580     0.0010    -1.2410 cc         1 LGW       0.617200
     10 N10          3.4380     0.0020    -1.2850 nu         1 LGW      -0.302600
     11 C11          4.0990     0.0030    -2.5200 cc         1 LGW       0.433200
     12 C12          3.4870     0.0100    -3.7830 cc         1 LGW      -0.324300
     13 C13          4.4650     0.0090    -4.7180 cd         1 LGW      -0.207600
     14 N14          5.6520     0.0030    -4.0760 na         1 LGW       0.464400
     15 N15          5.3990     0.0040    -2.6980 nd         1 LGW      -0.701800
     16 C16          4.2640     0.0140    -6.2120 cx         1 LGW      -0.015400
     17 C17          5.2750     0.7910    -7.0580 cx         1 LGW      -0.081400
     18 C18          5.2860    -0.7390    -7.0640 cx         1 LGW      -0.081400
     19 C19         -0.7220    -0.0080    -3.6560 c3         1 LGW      -0.000600
     20 N20         -1.9660    -0.7790    -3.5240 n          1 LGW      -0.134800
     21 C21         -3.1070     0.1180    -3.7840 c3         1 LGW       0.029000
     22 C22         -2.5260     1.2550    -4.6610 c3         1 LGW      -0.032400
     23 C23         -1.1130     1.4340    -4.0440 c3         1 LGW      -0.026400
     24 C24         -2.0510    -2.0880    -3.2170 c          1 LGW       0.637700
     25 O25         -1.0400    -2.7570    -3.1270 o          1 LGW      -0.642100
     26 C26         -3.3720    -2.7100    -2.9880 ca         1 LGW      -0.281900
     27 C27         -3.5490    -4.0880    -3.1650 ca         1 LGW       0.016000
     28 C28         -4.8040    -4.6220    -2.9390 ca         1 LGW      -0.253300
     29 C29         -5.8370    -3.7830    -2.5470 ca         1 LGW       0.579500
     30 N30         -5.6390    -2.4860    -2.3880 nb         1 LGW      -0.599000
     31 C31         -4.4590    -1.9340    -2.5870 ca         1 LGW       0.420200
     32 F32         -7.0660    -4.3000    -2.3250 f          1 LGW      -0.222200
     33 H3           2.8230    -0.0000     1.6700 ha         1 LGW       0.125000
     34 H4           0.6170     0.0450     3.1880 ha         1 LGW       0.130000
     35 H5          -1.4650    -0.0010     1.5910 h4         1 LGW       0.154000
     36 HN10         3.9660    -0.0270    -0.4350 hn         1 LGW       0.292800
     37 H12          2.4210     0.0140    -3.9760 ha         1 LGW       0.193000
     38 H16          3.2540     0.0090    -6.6040 hc         1 LGW       0.070700
     39 H17          4.8770     1.2600    -7.9500 hc         1 LGW       0.046700
     40 H17A         6.0810     1.2620    -6.5080 hc         1 LGW       0.046700
     41 H18          4.8940    -1.2060    -7.9600 hc         1 LGW       0.046700
     42 H18A         6.0980    -1.2030    -6.5180 hc         1 LGW       0.046700
     43 H19         -0.1040    -0.4410    -4.4340 h1         1 LGW       0.056700
     44 H21         -3.8860    -0.4100    -4.3210 h1         1 LGW       0.031700
     45 H21A        -3.4890     0.5200    -2.8530 h1         1 LGW       0.031700
     46 H22         -3.1100     2.1610    -4.5550 hc         1 LGW       0.027700
     47 H22A        -2.4580     0.9460    -5.6970 hc         1 LGW       0.027700
     48 H23         -1.1580     2.0670    -3.1660 hc         1 LGW       0.032200
     49 H23A        -0.4240     1.8330    -4.7780 hc         1 LGW       0.032200
     50 H27         -2.7240    -4.7190    -3.4720 ha         1 LGW       0.132000
     51 H28         -4.9780    -5.6840    -3.0660 ha         1 LGW       0.131000
     52 H31         -4.3350    -0.8670    -2.4470 h4         1 LGW       0.011100
     53 HN14         6.5540     0.0030    -4.5080 hn         1 LGW       0.147700
@<TRIPOS>BOND
     1     1     2 1   
     2     1     5 1   
     3     1     6 1   
     4     2     3 2   
     5     2     9 1   
     6     3     4 1   
     7     3    33 1   
     8     4     5 2   
     9     4    34 1   
    10     5    35 1   
    11     6     7 2   
    12     7     8 1   
    13     7    19 1   
    14     8     9 2   
    15     9    10 1   
    16    10    11 1   
    17    10    36 1   
    18    11    12 1   
    19    11    15 2   
    20    12    13 2   
    21    12    37 1   
    22    13    14 1   
    23    13    16 1   
    24    14    15 1   
    25    14    53 1   
    26    16    17 1   
    27    16    18 1   
    28    16    38 1   
    29    17    18 1   
    30    17    39 1   
    31    17    40 1   
    32    18    41 1   
    33    18    42 1   
    34    19    20 1   
    35    19    23 1   
    36    19    43 1   
    37    20    21 1   
    38    20    24 1   
    39    21    22 1   
    40    21    44 1   
    41    21    45 1   
    42    22    23 1   
    43    22    46 1   
    44    22    47 1   
    45    23    48 1   
    46    23    49 1   
    47    24    25 2   
    48    24    26 1   
    49    26    27 ar  
    50    26    31 ar  
    51    27    28 ar  
    52    27    50 1   
    53    28    29 ar  
    54    28    51 1   
    55    29    30 ar  
    56    29    32 1   
    57    30    31 ar  
    58    31    52 1   
@<TRIPOS>SUBSTRUCTURE
     1 LGW         1 TEMP              0 ****  ****    0 ROOT
