@<TRIPOS>MOLECULE
molecule
   53    58     1     0     0
SMALL
bcc


@<TRIPOS>ATOM
      1 N1           0.0000     0.0000     0.0000 na         1 LGX       0.244200
      2 C2           1.3820     0.0000     0.0000 cc         1 LGX      -0.296600
      3 C3           1.8000     0.0000     1.3160 cd         1 LGX      -0.148000
      4 C4           0.6500     0.0010     2.1060 cd         1 LGX      -0.200000
      5 C5          -0.4270     0.0010     1.2770 cc         1 LGX      -0.096100
      6 N6          -0.6640    -0.0050    -1.2340 nc         1 LGX      -0.571800
      7 C7           0.0190    -0.0100    -2.3450 cd         1 LGX       0.670300
      8 N8           1.3510    -0.0110    -2.3610 nd         1 LGX      -0.843000
      9 C9           2.0570     0.0010    -1.2420 cc         1 LGX       0.802200
     10 N10          3.4370     0.0010    -1.2880 nu         1 LGX      -0.816600
     11 C11          4.0970     0.0010    -2.5230 cc         1 LGX       0.572200
     12 C12          3.4850     0.0060    -3.7860 cc         1 LGX      -0.335300
     13 C13          4.4610     0.0060    -4.7220 cd         1 LGX      -0.028600
     14 N14          5.6500     0.0000    -4.0800 na         1 LGX      -0.040600
     15 N15          5.3990     0.0020    -2.7020 nd         1 LGX      -0.556800
     16 C16          4.2600     0.0100    -6.2150 cx         1 LGX      -0.065400
     17 C17          5.2660    -0.7680    -7.0660 cx         1 LGX      -0.134900
     18 C18          5.2860     0.7620    -7.0640 cx         1 LGX      -0.134900
     19 C19         -0.7240    -0.0160    -3.6560 c3         1 LGX       0.080400
     20 N20          0.1350    -0.5660    -4.7140 n          1 LGX      -0.477800
     21 C21          0.3460     0.4710    -5.7400 c3         1 LGX       0.102000
     22 C22         -0.8690     1.4210    -5.6000 c3         1 LGX      -0.101400
     23 C23         -1.0850     1.4290    -4.0600 c3         1 LGX      -0.082400
     24 C24          0.6450    -1.8130    -4.7430 c          1 LGX       0.711700
     25 O25          1.2800    -2.1890    -5.7090 o          1 LGX      -0.597100
     26 C26          0.4330    -2.7240    -3.5990 ca         1 LGX      -0.277900
     27 C27          1.4870    -3.5090    -3.1080 ca         1 LGX      -0.013000
     28 C28          1.2370    -4.3450    -2.0370 ca         1 LGX      -0.291300
     29 C29         -0.0350    -4.3800    -1.4850 ca         1 LGX       0.657500
     30 N30         -1.0080    -3.6280    -1.9690 nb         1 LGX      -0.725000
     31 C31         -0.8160    -2.8130    -2.9860 ca         1 LGX       0.469200
     32 F32         -0.2830    -5.1950    -0.4370 f          1 LGX      -0.216200
     33 H3           2.8250    -0.0000     1.6680 ha         1 LGX       0.151000
     34 H4           0.6200     0.0540     3.1880 ha         1 LGX       0.162000
     35 H5          -1.4630     0.0010     1.5920 h4         1 LGX       0.184000
     36 HN10         3.9660     0.0160    -0.4380 hn         1 LGX       0.472800
     37 H12          2.4190     0.0110    -3.9780 ha         1 LGX       0.207000
     38 H16          3.2500     0.0240    -6.6060 hc         1 LGX       0.109700
     39 H17          6.0690    -1.2470    -6.5190 hc         1 LGX       0.077450
     40 H17A         4.8640    -1.2290    -7.9600 hc         1 LGX       0.077450
     41 H18          6.1010     1.2180    -6.5160 hc         1 LGX       0.077450
     42 H18A         4.8960     1.2360    -7.9570 hc         1 LGX       0.077450
     43 H19         -1.6260    -0.6090    -3.5720 h1         1 LGX       0.079700
     44 H21          0.3610     0.0250    -6.7280 h1         1 LGX       0.061700
     45 H21A         1.2670     1.0080    -5.5480 h1         1 LGX       0.061700
     46 H22         -0.6260     2.4130    -5.9600 hc         1 LGX       0.060200
     47 H22A        -1.7360     1.0170    -6.1090 hc         1 LGX       0.060200
     48 H23         -0.4170     2.1370    -3.5850 hc         1 LGX       0.067200
     49 H23A        -2.1190     1.6450    -3.8210 hc         1 LGX       0.067200
     50 H27          2.4710    -3.4620    -3.5590 ha         1 LGX       0.166000
     51 H28          2.0270    -4.9660    -1.6320 ha         1 LGX       0.157000
     52 H31         -1.6390    -2.2120    -3.3540 h4         1 LGX       0.036100
     53 HN14         6.5520    -0.0010    -4.5130 hn         1 LGX       0.330700
@<TRIPOS>BOND
     1     6     1 1
     2     5     1 1
     3     1     2 1
     4     2     9 1
     5     2     3 2
     6     4     3 1
     7     3    33 1
     8     5     4 2
     9     4    34 1
    10     5    35 1
    11     6     7 2
    12    19     7 1
    13     7     8 1
    14     8     9 2
    15     9    10 1
    16    10    11 1
    17    10    36 1
    18    12    11 1
    19    11    15 2
    20    12    13 2
    21    12    37 1
    22    16    13 1
    23    13    14 1
    24    15    14 1
    25    17    16 1
    26    18    16 1
    27    16    38 1
    28    17    18 1
    29    17    39 1
    30    17    40 1
    31    18    41 1
    32    18    42 1
    33    20    19 1
    34    23    19 1
    35    19    43 1
    36    21    20 1
    37    20    24 1
    38    21    22 1
    39    21    44 1
    40    21    45 1
    41    22    23 1
    42    22    46 1
    43    22    47 1
    44    23    48 1
    45    23    49 1
    46    26    24 1
    47    24    25 2
    48    31    26 ar
    49    26    27 ar
    50    28    27 ar
    51    27    50 1
    52    29    28 ar
    53    28    51 1
    54    32    29 1
    55    30    29 ar
    56    30    31 ar
    57    31    52 1
    58    14    53 1
@<TRIPOS>SUBSTRUCTURE
     1 LGX         1 TEMP              0 ****  ****    0 ROOT
