@<TRIPOS>MOLECULE
LGX
   53    58     1     0     0
SMALL
bcc


@<TRIPOS>ATOM
      1 N1           0.0000     0.0000     0.0000 na         1 LGX       0.773200
      2 C2           1.3820     0.0000     0.0000 cc         1 LGX      -0.490600
      3 C3           1.8000     0.0000     1.3160 cd         1 LGX      -0.121000
      4 C4           0.6500     0.0010     2.1060 cd         1 LGX      -0.157000
      5 C5          -0.4270     0.0010     1.2770 cc         1 LGX      -0.291100
      6 N6          -0.6640    -0.0050    -1.2340 nc         1 LGX      -0.728800
      7 C7           0.0190    -0.0100    -2.3450 cd         1 LGX       0.673300
      8 N8           1.3510    -0.0110    -2.3610 nd         1 LGX      -0.780000
      9 C9           2.0570     0.0010    -1.2420 cc         1 LGX       0.615200
     10 N10          3.4370     0.0010    -1.2880 nu         1 LGX      -0.298600
     11 C11          4.0970     0.0010    -2.5230 cc         1 LGX       0.425200
     12 C12          3.4850     0.0060    -3.7860 cc         1 LGX      -0.340300
     13 C13          4.4610     0.0060    -4.7220 cd         1 LGX      -0.194600
     14 N14          5.6500     0.0000    -4.0800 na         1 LGX       0.464400
     15 N15          5.3990     0.0020    -2.7020 nd         1 LGX      -0.700800
     16 C16          4.2600     0.0100    -6.2150 cx         1 LGX      -0.020400
     17 C17          5.2660    -0.7680    -7.0660 cx         1 LGX      -0.080400
     18 C18          5.2860     0.7620    -7.0640 cx         1 LGX      -0.080400
     19 C19         -0.7240    -0.0160    -3.6560 c3         1 LGX      -0.025600
     20 N20          0.1350    -0.5660    -4.7140 n          1 LGX      -0.134800
     21 C21          0.3460     0.4710    -5.7400 c3         1 LGX       0.047000
     22 C22         -0.8690     1.4210    -5.6000 c3         1 LGX      -0.036400
     23 C23         -1.0850     1.4290    -4.0600 c3         1 LGX      -0.019400
     24 C24          0.6450    -1.8130    -4.7430 c          1 LGX       0.644700
     25 O25          1.2800    -2.1890    -5.7090 o          1 LGX      -0.644100
     26 C26          0.4330    -2.7240    -3.5990 ca         1 LGX      -0.276900
     27 C27          1.4870    -3.5090    -3.1080 ca         1 LGX       0.014000
     28 C28          1.2370    -4.3450    -2.0370 ca         1 LGX      -0.254300
     29 C29         -0.0350    -4.3800    -1.4850 ca         1 LGX       0.575500
     30 N30         -1.0080    -3.6280    -1.9690 nb         1 LGX      -0.590000
     31 C31         -0.8160    -2.8130    -2.9860 ca         1 LGX       0.432200
     32 F32         -0.2830    -5.1950    -0.4370 f          1 LGX      -0.221200
     33 H3           2.8250    -0.0000     1.6680 ha         1 LGX       0.126000
     34 H4           0.6200     0.0540     3.1880 ha         1 LGX       0.132000
     35 H5          -1.4630     0.0010     1.5920 h4         1 LGX       0.157000
     36 HN10         3.9660     0.0160    -0.4380 hn         1 LGX       0.292800
     37 H12          2.4190     0.0110    -3.9780 ha         1 LGX       0.197000
     38 H16          3.2500     0.0240    -6.6060 hc         1 LGX       0.080700
     39 H17          6.0690    -1.2470    -6.5190 hc         1 LGX       0.046450
     40 H17A         4.8640    -1.2290    -7.9600 hc         1 LGX       0.046450
     41 H18          6.1010     1.2180    -6.5160 hc         1 LGX       0.046450
     42 H18A         4.8960     1.2360    -7.9570 hc         1 LGX       0.046450
     43 H19         -1.6260    -0.6090    -3.5720 h1         1 LGX       0.057700
     44 H21          0.3610     0.0250    -6.7280 h1         1 LGX       0.032700
     45 H21A         1.2670     1.0080    -5.5480 h1         1 LGX       0.032700
     46 H22         -0.6260     2.4130    -5.9600 hc         1 LGX       0.027200
     47 H22A        -1.7360     1.0170    -6.1090 hc         1 LGX       0.027200
     48 H23         -0.4170     2.1370    -3.5850 hc         1 LGX       0.032700
     49 H23A        -2.1190     1.6450    -3.8210 hc         1 LGX       0.032700
     50 H27          2.4710    -3.4620    -3.5590 ha         1 LGX       0.130000
     51 H28          2.0270    -4.9660    -1.6320 ha         1 LGX       0.131000
     52 H31         -1.6390    -2.2120    -3.3540 h4         1 LGX      -0.000900
     53 HN14         6.5520    -0.0010    -4.5130 hn         1 LGX       0.148700
@<TRIPOS>BOND
     1     1     2 1   
     2     1     5 1   
     3     1     6 1   
     4     2     3 2   
     5     2     9 1   
     6     3     4 1   
     7     3    33 1   
     8     4     5 2   
     9     4    34 1   
    10     5    35 1   
    11     6     7 2   
    12     7     8 1   
    13     7    19 1   
    14     8     9 2   
    15     9    10 1   
    16    10    11 1   
    17    10    36 1   
    18    11    12 1   
    19    11    15 2   
    20    12    13 2   
    21    12    37 1   
    22    13    14 1   
    23    13    16 1   
    24    14    15 1   
    25    14    53 1   
    26    16    17 1   
    27    16    18 1   
    28    16    38 1   
    29    17    18 1   
    30    17    39 1   
    31    17    40 1   
    32    18    41 1   
    33    18    42 1   
    34    19    20 1   
    35    19    23 1   
    36    19    43 1   
    37    20    21 1   
    38    20    24 1   
    39    21    22 1   
    40    21    44 1   
    41    21    45 1   
    42    22    23 1   
    43    22    46 1   
    44    22    47 1   
    45    23    48 1   
    46    23    49 1   
    47    24    25 2   
    48    24    26 1   
    49    26    27 ar  
    50    26    31 ar  
    51    27    28 ar  
    52    27    50 1   
    53    28    29 ar  
    54    28    51 1   
    55    29    30 ar  
    56    29    32 1   
    57    30    31 ar  
    58    31    52 1   
@<TRIPOS>SUBSTRUCTURE
     1 LGX         1 TEMP              0 ****  ****    0 ROOT
