@<TRIPOS>MOLECULE
LGZ
   86    91     1     0     0
SMALL
bcc


@<TRIPOS>ATOM
      1 O01          0.0000     0.0000     0.0000 os         1 LGZ      -0.418900
      2 C02         -0.6720    -1.1640    -0.0670 c          1 LGZ       0.690100
      3 O03         -0.0660    -2.2150    -0.1280 o          1 LGZ      -0.644000
      4 NP4         -2.0210    -1.1640    -0.0670 ns         1 LGZ      -0.177900
      5 C05         -2.7540    -2.4310    -0.1400 c3         1 LGZ      -0.010300
      6 C06         -4.1410    -2.1830    -0.7370 c3         1 LGZ       0.165100
      7 O07         -4.8580    -1.2650     0.0900 oh         1 LGZ      -0.578800
      8 C08         -3.9950    -1.5970    -2.1430 c3         1 LGZ      -0.064400
      9 C09         -5.3750    -1.4670    -2.7870 c3         1 LGZ      -0.007800
     10 C10         -5.2510    -0.9240    -4.2120 c3         1 LGZ       0.048900
     11 C11         -6.6270    -0.7320    -4.7990 ca         1 LGZ      -0.095300
     12 C12         -7.2800     0.4760    -4.6430 ca         1 LGZ      -0.120500
     13 C13         -8.5420     0.6520    -5.1810 ca         1 LGZ      -0.090500
     14 C14         -9.1490    -0.3790    -5.8740 ca         1 LGZ      -0.105000
     15 C15         -8.4940    -1.5870    -6.0290 ca         1 LGZ      -0.090500
     16 C16         -7.2300    -1.7620    -5.4950 ca         1 LGZ      -0.120500
     17 C17         -6.0870    -2.8050    -2.7790 c          1 LGZ       0.670300
     18 O18         -5.7330    -3.8310    -3.3250 o          1 LGZ      -0.601100
     19 C19         -8.2820    -3.6620    -1.7300 c3         1 LGZ       0.145800
     20 C20         -7.6300    -4.8840    -1.0490 c3         1 LGZ       0.195100
     21 O1          -6.2300    -4.9960    -1.4190 os         1 LGZ      -0.325900
     22 C22         -8.4440    -6.0630    -1.6240 c3         1 LGZ       0.028900
     23 C23         -8.9520    -5.5770    -2.9650 ca         1 LGZ      -0.115300
     24 C24         -9.4550    -6.2840    -4.0450 ca         1 LGZ      -0.073000
     25 C25         -9.8650    -5.6170    -5.1820 ca         1 LGZ      -0.084000
     26 C26         -9.7720    -4.2400    -5.2450 ca         1 LGZ      -0.101000
     27 C27         -9.2700    -3.5330    -4.1700 ca         1 LGZ      -0.083000
     28 C28         -8.8590    -4.1990    -3.0280 ca         1 LGZ      -0.099300
     29 N29         -6.2410    -0.5940    -1.9770 nu         1 LGZ      -0.333000
     30 C30         -7.3050    -1.3340    -1.5700 c2         1 LGZ       0.099000
     31 C35         -7.2480    -2.6040    -2.0160 ce         1 LGZ      -0.438400
     32 C36         -2.9000    -3.0170     1.2650 c3         1 LGZ       0.023900
     33 C37         -1.5380    -3.3740     1.8050 ca         1 LGZ      -0.100300
     34 C38         -0.8120    -2.4410     2.5200 ca         1 LGZ      -0.092500
     35 C39          0.4370    -2.7680     3.0150 ca         1 LGZ      -0.077000
     36 C40          0.9580    -4.0300     2.7950 ca         1 LGZ      -0.074000
     37 C41          0.2320    -4.9630     2.0800 ca         1 LGZ      -0.077000
     38 C42         -1.0190    -4.6370     1.5880 ca         1 LGZ      -0.092500
     39 C44          1.4530     0.0000     0.0000 c3         1 LGZ       0.172100
     40 C45          1.9940     0.0000     1.4470 c3         1 LGZ       0.176400
     41 O46          3.1620     0.8510     1.4020 os         1 LGZ      -0.388600
     42 C47          2.7980     1.9560     0.5450 c3         1 LGZ       0.209400
     43 C48          1.9940     1.3140    -0.6070 c3         1 LGZ      -0.070400
     44 C1          -5.3580    -5.5900    -0.5830 c          1 LGZ       0.427100
     45 N1          -4.0580    -5.6930    -0.9270 nz         1 LGZ       0.216600
     46 O2          -5.7430    -6.0340     0.4800 o          1 LGZ      -0.472000
     47 H1          -2.5200    -0.3010     0.0170 hn         1 LGZ       0.176500
     48 H2          -2.2100    -3.1270    -0.7670 h1         1 LGZ       0.044700
     49 H3          -4.6830    -3.1200    -0.7910 h1         1 LGZ       0.016700
     50 H4          -4.5510    -0.3890    -0.0740 ho         1 LGZ       0.402000
     51 H5          -3.3760    -2.2530    -2.7440 hc         1 LGZ       0.043200
     52 H6          -3.5310    -0.6200    -2.0800 hc         1 LGZ       0.043200
     53 H7          -4.6940    -1.6280    -4.8190 hc         1 LGZ       0.035200
     54 H8          -4.7310     0.0260    -4.1930 hc         1 LGZ       0.035200
     55 H9          -6.7790     1.3040    -4.1580 ha         1 LGZ       0.118500
     56 H10         -9.0540     1.5990    -5.0610 ha         1 LGZ       0.117000
     57 H11        -10.1180    -0.2260    -6.3330 ha         1 LGZ       0.114000
     58 H12         -8.9380    -2.3680    -6.6340 ha         1 LGZ       0.117000
     59 H13         -6.7330    -2.1690    -6.3670 ha         1 LGZ       0.118500
     60 H14         -9.0730    -3.2650    -1.1050 hc         1 LGZ       0.051700
     61 H15         -7.7460    -4.8300     0.0260 h1         1 LGZ       0.048700
     62 H16         -9.2840    -6.2760    -0.9740 hc         1 LGZ       0.036700
     63 H17         -7.7940    -6.9170    -1.7700 hc         1 LGZ       0.036700
     64 H18         -9.5280    -7.3640    -3.9960 ha         1 LGZ       0.105000
     65 H19        -10.2580    -6.1730    -6.0240 ha         1 LGZ       0.111000
     66 H20        -10.0930    -3.7150    -6.1370 ha         1 LGZ       0.111000
     67 H21         -9.1990    -2.4530    -4.2210 ha         1 LGZ       0.128000
     68 H22         -6.0760     0.3700    -1.7650 hn         1 LGZ       0.315800
     69 H23         -8.1100    -0.9460    -0.9580 h4         1 LGZ       0.136000
     70 H24         -3.5160    -3.9060     1.2230 hc         1 LGZ       0.017700
     71 H25         -3.3650    -2.2850     1.9150 hc         1 LGZ       0.017700
     72 H26         -1.2210    -1.4530     2.6920 ha         1 LGZ       0.079000
     73 H27          1.0060    -2.0370     3.5760 ha         1 LGZ       0.108500
     74 H28          1.9370    -4.2860     3.1820 ha         1 LGZ       0.113000
     75 H29          0.6400    -5.9520     1.9090 ha         1 LGZ       0.108500
     76 H30         -1.5880    -5.3680     1.0270 ha         1 LGZ       0.079000
     77 H31          1.8370    -0.8530    -0.5460 h1         1 LGZ       0.050700
     78 H32          1.2550     0.4110     2.1250 h1         1 LGZ       0.021700
     79 H33          2.2710    -1.0040     1.7450 h1         1 LGZ       0.021700
     80 H34          3.6870     2.4400     0.1580 h1         1 LGZ       0.016200
     81 H35          2.1800     2.6630     1.0850 h1         1 LGZ       0.016200
     82 H36          2.6420     1.1020    -1.4490 hc         1 LGZ       0.035200
     83 H37          1.1750     1.9590    -0.9020 hc         1 LGZ       0.035200
     84 H38         -3.7080    -4.7900    -1.1810 hn         1 LGZ       0.255800
     85 H39         -3.5350    -6.0470    -0.1510 hn         1 LGZ       0.255800
     86 H131        -3.9670    -6.3170    -1.7040 hn         1 LGZ       0.255800
@<TRIPOS>BOND
     1     1     2 1   
     2     1    39 1   
     3     2     3 2   
     4     2     4 1   
     5     4     5 1   
     6     4    47 1   
     7     5     6 1   
     8     5    32 1   
     9     5    48 1   
    10     6     7 1   
    11     6     8 1   
    12     6    49 1   
    13     7    50 1   
    14     8     9 1   
    15     8    51 1   
    16     8    52 1   
    17     9    10 1   
    18     9    17 1   
    19     9    29 1   
    20    10    11 1   
    21    10    53 1   
    22    10    54 1   
    23    11    12 ar  
    24    11    16 ar  
    25    12    13 ar  
    26    12    55 1   
    27    13    14 ar  
    28    13    56 1   
    29    14    15 ar  
    30    14    57 1   
    31    15    16 ar  
    32    15    58 1   
    33    16    59 1   
    34    17    18 2   
    35    17    31 1   
    36    19    20 1   
    37    19    28 1   
    38    19    31 1   
    39    19    60 1   
    40    20    21 1   
    41    20    22 1   
    42    20    61 1   
    43    21    44 1   
    44    22    23 1   
    45    22    62 1   
    46    22    63 1   
    47    23    24 ar  
    48    23    28 ar  
    49    24    25 ar  
    50    24    64 1   
    51    25    26 ar  
    52    25    65 1   
    53    26    27 ar  
    54    26    66 1   
    55    27    28 ar  
    56    27    67 1   
    57    29    30 1   
    58    29    68 1   
    59    30    31 2   
    60    30    69 1   
    61    32    33 1   
    62    32    70 1   
    63    32    71 1   
    64    33    34 ar  
    65    33    38 ar  
    66    34    35 ar  
    67    34    72 1   
    68    35    36 ar  
    69    35    73 1   
    70    36    37 ar  
    71    36    74 1   
    72    37    38 ar  
    73    37    75 1   
    74    38    76 1   
    75    39    40 1   
    76    39    43 1   
    77    39    77 1   
    78    40    41 1   
    79    40    78 1   
    80    40    79 1   
    81    41    42 1   
    82    42    43 1   
    83    42    80 1   
    84    42    81 1   
    85    43    82 1   
    86    43    83 1   
    87    44    45 1   
    88    44    46 2   
    89    45    84 1   
    90    45    85 1   
    91    45    86 1   
@<TRIPOS>SUBSTRUCTURE
     1 LGZ         1 TEMP              0 ****  ****    0 ROOT
