@<TRIPOS>MOLECULE
molecule
   77    81     1     0     0
SMALL
bcc


@<TRIPOS>ATOM
      1 O5           0.0000     0.0000     0.0000 o          1 LH3      -0.678500
      2 C31          1.2160     0.0000     0.0000 c          1 LH3       0.819500
      3 N3           1.9470     0.0000     1.1230 ns         1 LH3      -0.596900
      4 C            3.3740    -0.0010     0.7670 c3         1 LH3       0.091700
      5 N2           1.9470    -0.0050    -1.1230 ns         1 LH3      -0.595900
      6 C30          3.3750    -0.0000    -0.7670 c3         1 LH3       0.092700
      7 C2           4.0440    -1.2580    -1.3540 c3         1 LH3       0.027400
      8 S            3.8510    -2.4880    -0.0010 ss         1 LH3      -0.345200
      9 C1           4.0440    -1.2590     1.3540 c3         1 LH3       0.012700
     10 C3           3.3140    -1.7220    -2.6160 c3         1 LH3      -0.064400
     11 C4           4.0730    -2.8930    -3.2430 c3         1 LH3      -0.087400
     12 C5           3.3430    -3.3560    -4.5050 c3         1 LH3      -0.065400
     13 C6           4.1020    -4.5270    -5.1320 c3         1 LH3      -0.148400
     14 C7           3.3820    -4.9840    -6.3760 c          1 LH3       0.650100
     15 O            2.3630    -4.4270    -6.7250 o          1 LH3      -0.614100
     16 N            3.8710    -6.0100    -7.0990 ns         1 LH3      -0.404300
     17 N1           3.2030    -6.4350    -8.2540 nu         1 LH3      -0.600600
     18 C8           3.7640    -7.4170    -9.0600 ca         1 LH3       0.214600
     19 C13          2.9450    -8.3370    -9.7260 cp         1 LH3      -0.112000
     20 C14          1.4730    -8.2660    -9.5730 cp         1 LH3      -0.012500
     21 C19          0.6530    -8.2740   -10.7040 ca         1 LH3      -0.134250
     22 C18         -0.7090    -8.2090   -10.5640 ca         1 LH3      -0.075250
     23 C17         -1.2770    -8.1340    -9.2890 ca         1 LH3      -0.137100
     24 C20         -2.7430    -8.0650    -9.1370 c          1 LH3       0.647700
     25 O2          -3.2910    -7.9930    -7.9080 os         1 LH3      -0.428900
     26 C21         -4.7390    -7.9270    -7.8340 c3         1 LH3       0.140700
     27 O1          -3.4570    -8.0710   -10.1210 o          1 LH3      -0.549500
     28 C16         -0.4550    -8.1270    -8.1580 ca         1 LH3      -0.075250
     29 C15          0.9060    -8.1970    -8.3000 ca         1 LH3      -0.134250
     30 C12          3.5180    -9.3180   -10.5330 ca         1 LH3      -0.069500
     31 C11          4.8900    -9.3860   -10.6760 ca         1 LH3      -0.170000
     32 C10          5.7070    -8.4840   -10.0240 ca         1 LH3      -0.069500
     33 C9           5.1540    -7.4920    -9.2170 cp         1 LH3      -0.112000
     34 C22          6.0330    -6.5220    -8.5240 cp         1 LH3      -0.012500
     35 C27          7.0770    -6.9790    -7.7180 ca         1 LH3      -0.134250
     36 C26          7.8920    -6.0830    -7.0760 ca         1 LH3      -0.075250
     37 C25          7.6760    -4.7100    -7.2270 ca         1 LH3      -0.137100
     38 C24          6.6290    -4.2530    -8.0350 ca         1 LH3      -0.075250
     39 C23          5.8190    -5.1520    -8.6800 ca         1 LH3      -0.134250
     40 C28          8.5510    -3.7440    -6.5350 c          1 LH3       0.647700
     41 O3           9.4590    -4.1420    -5.8340 o          1 LH3      -0.549500
     42 O4           8.3410    -2.4210    -6.6820 os         1 LH3      -0.428900
     43 C29          9.2420    -1.5290    -5.9720 c3         1 LH3       0.140700
     44 H3           1.5800     0.0010     2.0550 hn         1 LH3       0.362500
     45 H2           1.5810    -0.0100    -2.0540 hn         1 LH3       0.365500
     46 H            3.8560     0.8930     1.1440 h1         1 LH3       0.066700
     47 H30          3.8540     0.8950    -1.1440 h1         1 LH3       0.067700
     48 H11C         5.0920    -1.0740     1.5570 h1         1 LH3       0.080700
     49 H12C         3.5240    -1.5880     2.2460 h1         1 LH3       0.080700
     50 HA           5.0920    -1.0730    -1.5550 h1         1 LH3       0.076700
     51 H31C         2.3110    -2.0390    -2.3580 hc         1 LH3       0.060200
     52 H32C         3.2630    -0.9040    -3.3250 hc         1 LH3       0.060200
     53 H41C         5.0760    -2.5760    -3.5010 hc         1 LH3       0.048200
     54 H42C         4.1240    -3.7110    -2.5340 hc         1 LH3       0.048200
     55 H51C         2.3400    -3.6740    -4.2460 hc         1 LH3       0.061200
     56 H52C         3.2910    -2.5380    -5.2140 hc         1 LH3       0.061200
     57 H61C         4.1530    -5.3450    -4.4240 hc         1 LH3       0.064700
     58 H62C         5.1040    -4.2090    -5.3910 hc         1 LH3       0.064700
     59 HB           4.6760    -6.5100    -6.7760 hn         1 LH3       0.350500
     60 H1           2.3450    -5.9960    -8.5250 hn         1 LH3       0.498800
     61 H12          2.8850   -10.0300   -11.0490 ha         1 LH3       0.139500
     62 H19          1.0940    -8.3310   -11.6910 ha         1 LH3       0.146500
     63 H15          1.5430    -8.1920    -7.4230 ha         1 LH3       0.146500
     64 H18         -1.3450    -8.2140   -11.4410 ha         1 LH3       0.155500
     65 H16         -0.8950    -8.0720    -7.1690 ha         1 LH3       0.155500
     66 H211        -5.1650    -8.8120    -8.2910 h1         1 LH3       0.049867
     67 H212        -5.0880    -7.0460    -8.3590 h1         1 LH3       0.049867
     68 H213        -5.0450    -7.8730    -6.7960 h1         1 LH3       0.049867
     69 H11          5.3280   -10.1540   -11.3030 ha         1 LH3       0.137000
     70 H10          6.7820    -8.5440   -10.1440 ha         1 LH3       0.139500
     71 H27          7.2440    -8.0430    -7.6010 ha         1 LH3       0.146500
     72 H23          5.0090    -4.7980    -9.3060 ha         1 LH3       0.146500
     73 H26          8.7020    -6.4380    -6.4510 ha         1 LH3       0.155500
     74 H24          6.4620    -3.1890    -8.1550 ha         1 LH3       0.155500
     75 H291        10.2540    -1.6810    -6.3260 h1         1 LH3       0.049867
     76 H292         9.1950    -1.7400    -4.9100 h1         1 LH3       0.049867
     77 H293         8.9470    -0.5020    -6.1490 h1         1 LH3       0.049867
@<TRIPOS>BOND
     1     1     2 2
     2     2     3 1
     3     2     5 1
     4     3     4 1
     5     4     6 1
     6     4     9 1
     7     5     6 1
     8     6     7 1
     9     7     8 1
    10     7    10 1
    11     8     9 1
    12    10    11 1
    13    11    12 1
    14    12    13 1
    15    13    14 1
    16    14    15 2
    17    14    16 1
    18    16    17 1
    19    17    18 1
    20    18    19 ar
    21    18    33 ar
    22    19    20 1
    23    19    30 ar
    24    20    21 ar
    25    20    29 ar
    26    21    22 ar
    27    22    23 ar
    28    23    24 1
    29    23    28 ar
    30    24    25 1
    31    24    27 2
    32    25    26 1
    33    28    29 ar
    34    30    31 ar
    35    31    32 ar
    36    32    33 ar
    37    33    34 1
    38    34    35 ar
    39    34    39 ar
    40    35    36 ar
    41    36    37 ar
    42    37    38 ar
    43    37    40 1
    44    38    39 ar
    45    40    41 2
    46    40    42 1
    47    42    43 1
    48     3    44 1
    49     5    45 1
    50     4    46 1
    51     6    47 1
    52     9    48 1
    53     9    49 1
    54     7    50 1
    55    10    51 1
    56    10    52 1
    57    11    53 1
    58    11    54 1
    59    12    55 1
    60    12    56 1
    61    13    57 1
    62    13    58 1
    63    16    59 1
    64    17    60 1
    65    30    61 1
    66    21    62 1
    67    29    63 1
    68    22    64 1
    69    28    65 1
    70    26    66 1
    71    26    67 1
    72    26    68 1
    73    31    69 1
    74    32    70 1
    75    35    71 1
    76    39    72 1
    77    36    73 1
    78    38    74 1
    79    43    75 1
    80    43    76 1
    81    43    77 1
@<TRIPOS>SUBSTRUCTURE
     1 LH3         1 TEMP              0 ****  ****    0 ROOT
