@<TRIPOS>MOLECULE
LHB
   55    58     1     0     0
SMALL
bcc


@<TRIPOS>ATOM
      1 C1           0.0000     0.0000     0.0000 ca         1 LHB       0.594200
      2 C2           1.4050     0.0000     0.0000 ca         1 LHB      -0.253200
      3 C3           2.0690     0.0000     1.2390 ca         1 LHB       0.287800
      4 N1           1.3490     0.0000     2.3570 nb         1 LHB      -0.678000
      5 C4           0.0340    -0.0000     2.3080 ca         1 LHB       0.706900
      6 N2          -0.6330     0.0050     1.1690 nb         1 LHB      -0.735000
      7 N3           3.4090     0.0000     0.9500 na         1 LHB       0.201000
      8 C5           3.5340     0.0000    -0.4070 cc         1 LHB       0.220700
      9 N4           2.3580     0.0000    -0.9620 nd         1 LHB      -0.482100
     10 C6           4.5050     0.0000     1.9220 c3         1 LHB       0.163800
     11 O1           5.7330     0.4420     1.3030 os         1 LHB      -0.408600
     12 C7           6.8130    -0.0520     2.1140 c3         1 LHB       0.166100
     13 C8           6.3060    -1.3180     2.8310 c3         1 LHB       0.124100
     14 C9           4.8300    -1.4440     2.3790 c3         1 LHB       0.129100
     15 O2           3.9940    -1.8340     3.4710 oh         1 LHB      -0.527800
     16 O3           6.3850    -1.1560     4.2490 oh         1 LHB      -0.544800
     17 C10          8.0110    -0.4000     1.2290 c3         1 LHB       0.137800
     18 N5           8.5510     0.8280     0.6310 n7         1 LHB      -0.602200
     19 C11          9.7060     0.5330    -0.2280 c3         1 LHB       0.213000
     20 C12         10.2310     1.8140    -0.8230 cc         1 LHB      -0.368800
     21 N6          -0.7080     0.0010    -1.1900 nv         1 LHB      -0.470500
     22 C13          9.6620     2.3420    -1.9990 cc         1 LHB       0.293500
     23 N7          10.1380     3.4720    -2.5070 nd         1 LHB      -0.471100
     24 C14         11.1470     4.1100    -1.9180 c          1 LHB       0.678900
     25 N8          11.7120     3.6300    -0.7950 n          1 LHB       0.074000
     26 C15         11.2530     2.4770    -0.2320 cd         1 LHB      -0.009400
     27 N9           8.6190     1.6920    -2.6160 nz         1 LHB       0.187400
     28 C16         12.8210     4.3550    -0.1700 c3         1 LHB       0.245800
     29 O4          12.3170     5.5120     0.5000 os         1 LHB      -0.366600
     30 C17         11.7470     5.2410     1.7810 c3         1 LHB       0.236700
     31 O5          11.5670     5.1460    -2.4050 o          1 LHB      -0.561500
     32 H1          -0.5220     0.0040     3.2370 h5         1 LHB       0.001100
     33 H2           4.4750     0.0010    -0.9440 h5         1 LHB       0.016800
     34 H3           4.2660     0.6230     2.7760 h2         1 LHB       0.078700
     35 H4           7.0930     0.6970     2.8450 h1         1 LHB       0.047700
     36 H5           6.8720    -2.1840     2.5110 h1         1 LHB       0.012700
     37 H6           4.7420    -2.1370     1.5500 h1         1 LHB       0.022700
     38 H7           3.9560    -2.7750     3.5190 ho         1 LHB       0.396000
     39 H8           6.8690    -1.8740     4.6210 ho         1 LHB       0.397000
     40 H10          8.7760    -0.8760     1.8290 h1         1 LHB       0.021200
     41 H9           7.6950    -1.0760     0.4430 h1         1 LHB       0.021200
     42 H11          8.8270     1.4590     1.3570 hn         1 LHB       0.274800
     43 H12          9.4030    -0.1370    -1.0230 h1         1 LHB       0.017700
     44 H13         10.4840     0.0630     0.3620 h1         1 LHB       0.017700
     45 H14         -1.7090     0.0020    -1.1760 hn         1 LHB       0.278300
     46 H15         -0.2190    -0.0010    -2.0630 hn         1 LHB       0.278300
     47 H16         11.7080     2.0910     0.6720 h4         1 LHB       0.153000
     48 H18          8.8840     0.7460    -2.8090 hn         1 LHB       0.228467
     49 H17          7.8190     1.6980    -2.0150 hn         1 LHB       0.228467
     50 H20         13.5300     4.6580    -0.9310 h2         1 LHB       0.051200
     51 H19         13.3160     3.7100     0.5470 h2         1 LHB       0.051200
     52 H22         12.2720     4.4130     2.2420 h1         1 LHB      -0.000633
     53 H23         10.7010     4.9840     1.6640 h1         1 LHB      -0.000633
     54 H21         11.8350     6.1190     2.4090 h1         1 LHB      -0.000633
     55 H93          8.4030     2.1520    -3.4780 hn         1 LHB       0.228467
@<TRIPOS>BOND
     1     1     2 ar  
     2     1     6 ar  
     3     1    21 1   
     4     2     3 ar  
     5     2     9 1   
     6     3     4 ar  
     7     3     7 1   
     8     4     5 ar  
     9     5     6 ar  
    10     5    32 1   
    11     7     8 1   
    12     7    10 1   
    13     8     9 2   
    14     8    33 1   
    15    10    11 1   
    16    10    14 1   
    17    10    34 1   
    18    11    12 1   
    19    12    13 1   
    20    12    17 1   
    21    12    35 1   
    22    13    14 1   
    23    13    16 1   
    24    13    36 1   
    25    14    15 1   
    26    14    37 1   
    27    15    38 1   
    28    16    39 1   
    29    17    18 1   
    30    17    40 1   
    31    17    41 1   
    32    18    19 1   
    33    18    42 1   
    34    19    20 1   
    35    19    43 1   
    36    19    44 1   
    37    20    22 1   
    38    20    26 2   
    39    21    45 1   
    40    21    46 1   
    41    22    23 2   
    42    22    27 1   
    43    23    24 1   
    44    24    25 1   
    45    24    31 2   
    46    25    26 1   
    47    25    28 1   
    48    26    47 1   
    49    27    48 1   
    50    27    49 1   
    51    27    55 1   
    52    28    29 1   
    53    28    50 1   
    54    28    51 1   
    55    29    30 1   
    56    30    52 1   
    57    30    53 1   
    58    30    54 1   
@<TRIPOS>SUBSTRUCTURE
     1 LHB         1 TEMP              0 ****  ****    0 ROOT
