@<TRIPOS>MOLECULE
molecule
   59    62     1     0     0
SMALL
bcc


@<TRIPOS>ATOM
      1 C1           0.0000     0.0000     0.0000 ca         1 LHD       0.800200
      2 C2           1.4050     0.0000     0.0000 ca         1 LHD      -0.222200
      3 C3           2.0690     0.0000     1.2390 ca         1 LHD       0.493800
      4 N1           1.3500    -0.0010     2.3570 nb         1 LHD      -0.797000
      5 C4           0.0340    -0.0020     2.3080 ca         1 LHD       0.767900
      6 N2          -0.6340    -0.0010     1.1680 nb         1 LHD      -0.819000
      7 N3           3.4100     0.0010     0.9500 na         1 LHD      -0.268000
      8 C5           3.5340     0.0010    -0.4080 cc         1 LHD       0.385700
      9 N4           2.3570     0.0010    -0.9630 nd         1 LHD      -0.554100
     10 C6           4.5060     0.0020     1.9210 c3         1 LHD       0.275800
     11 O1           5.7340     0.4430     1.3020 os         1 LHD      -0.441600
     12 C7           6.8130    -0.0500     2.1130 c3         1 LHD       0.128100
     13 C8           6.3070    -1.3160     2.8290 c3         1 LHD       0.088100
     14 C9           4.8310    -1.4430     2.3780 c3         1 LHD       0.106100
     15 O2           3.9960    -1.8340     3.4690 oh         1 LHD      -0.534800
     16 O3           6.3840    -1.1540     4.2470 oh         1 LHD      -0.552800
     17 N5           9.7240     0.5500    -0.2460 ny         1 LHD      -0.743000
     18 C10         10.2630     1.7780    -0.8440 c3         1 LHD       0.169000
     19 C11         11.4440     1.4360    -1.7160 cd         1 LHD      -0.500800
     20 N6          -0.7080     0.0060    -1.1890 nv         1 LHD      -0.969500
     21 C12         12.7320     1.3080    -1.1590 cd         1 LHD       0.566500
     22 N7          13.7590     1.0060    -1.9430 nc         1 LHD      -0.563100
     23 C13         13.5850     0.8230    -3.2510 c          1 LHD       0.807900
     24 N8          12.3680     0.9390    -3.8120 n          1 LHD      -0.328000
     25 C14         11.2820     1.2410    -3.0460 cc         1 LHD       0.161600
     26 N9          12.9240     1.4950     0.1910 nz         1 LHD      -0.747600
     27 C15         12.2090     0.7320    -5.2540 c3         1 LHD       0.277800
     28 O4          12.2830    -0.6640    -5.5460 os         1 LHD      -0.361600
     29 C16         11.0710    -1.3780    -5.2900 c3         1 LHD       0.108700
     30 O5          14.5450     0.5460    -3.9510 o          1 LHD      -0.435500
     31 C17          8.0120    -0.3970     1.2270 c3         1 LHD      -0.111400
     32 C18          8.5740     0.8830     0.6050 c3         1 LHD       0.087800
     33 H1          -0.5210    -0.0020     3.2380 h5         1 LHD       0.076100
     34 H2           4.4750     0.0010    -0.9460 h5         1 LHD       0.057800
     35 H3           4.2670     0.6240     2.7750 h2         1 LHD       0.128700
     36 H4           7.0940     0.6980     2.8450 h1         1 LHD       0.087700
     37 H5           6.8740    -2.1820     2.5100 h1         1 LHD       0.043700
     38 H6           4.7430    -2.1350     1.5490 h1         1 LHD       0.064700
     39 H7           3.8450    -2.7640     3.4330 ho         1 LHD       0.421000
     40 H8           6.9830    -1.7880     4.6040 ho         1 LHD       0.415000
     41 H26          9.4330    -0.0750    -0.9720 hn         1 LHD       0.442800
     42 H9          10.4320     0.1100     0.3080 hn         1 LHD       0.442800
     43 H10          9.4970     2.2530    -1.4440 hx         1 LHD       0.117200
     44 H11         10.5780     2.4540    -0.0580 hx         1 LHD       0.117200
     45 H12         -0.2200     0.0100    -2.0620 hn         1 LHD       0.457800
     46 H13         -1.7090     0.0050    -1.1750 hn         1 LHD       0.457800
     47 H14         10.3020     1.3350    -3.4980 h4         1 LHD       0.200000
     48 H16         12.5320     0.7240     0.6940 hn         1 LHD       0.480467
     49 H15         13.9040     1.5550     0.3830 hn         1 LHD       0.480467
     50 H18         12.9970     1.2540    -5.7830 h2         1 LHD       0.111200
     51 H17         11.2460     1.1170    -5.5690 h2         1 LHD       0.111200
     52 H20         10.2250    -0.7170    -5.4360 h1         1 LHD       0.046700
     53 H19         10.9960    -2.2170    -5.9710 h1         1 LHD       0.046700
     54 H21         11.0750    -1.7410    -4.2690 h1         1 LHD       0.046700
     55 H22          7.6960    -1.0730     0.4410 hc         1 LHD       0.070700
     56 H23          8.7780    -0.8740     1.8260 hc         1 LHD       0.070700
     57 H25          7.8070     1.3590     0.0050 hx         1 LHD       0.123700
     58 H24          8.8890     1.5580     1.3910 hx         1 LHD       0.123700
     59 H93         12.4860     2.3490     0.4750 hn         1 LHD       0.480467
@<TRIPOS>BOND
     1    20     1 1
     2     1     2 ar
     3     1     6 ar
     4     9     2 1
     5     9     8 2
     6     2     3 ar
     7     6     5 ar
     8     8     7 1
     9     3     7 1
    10     3     4 ar
    11     5     4 ar
    12     7    10 1
    13    27    28 1
    14    27    24 1
    15    10    14 1
    16    10    11 1
    17    28    29 1
    18    14    15 1
    19    14    13 1
    20    11    12 1
    21    31    12 1
    22    31    32 1
    23    17    32 1
    24    17    18 1
    25    25    24 1
    26    25    19 2
    27    24    23 1
    28    12    13 1
    29    18    19 1
    30    13    16 1
    31    19    21 1
    32    23    30 2
    33    23    22 1
    34    21    22 2
    35    21    26 1
    36     5    33 1
    37     8    34 1
    38    10    35 1
    39    12    36 1
    40    13    37 1
    41    14    38 1
    42    15    39 1
    43    16    40 1
    44    17    41 1
    45    17    42 1
    46    18    43 1
    47    18    44 1
    48    20    45 1
    49    20    46 1
    50    25    47 1
    51    26    48 1
    52    26    49 1
    53    27    50 1
    54    27    51 1
    55    29    52 1
    56    29    53 1
    57    29    54 1
    58    31    55 1
    59    31    56 1
    60    32    57 1
    61    32    58 1
    62    59    26 1
@<TRIPOS>SUBSTRUCTURE
     1 LHD         1 TEMP              0 ****  ****    0 ROOT
