@<TRIPOS>MOLECULE
molecule
   68    72     1     0     0
SMALL
bcc


@<TRIPOS>ATOM
      1 C1'          0.0000     0.0000     0.0000 c3         1 LHF       0.234800
      2 C2          -0.8230    -1.7110    -4.0680 ca         1 LHF       0.715900
      3 C2'          1.5500     0.0000     0.0000 c3         1 LHF       0.061100
      4 C3'          1.8740     0.0000     1.5140 c3         1 LHF       0.127100
      5 C32         -1.2330     3.9150     5.2490 c3         1 LHF       0.122000
      6 C36         -0.2510     7.3600     7.4620 c          1 LHF       0.815900
      7 C38         -1.1320     6.3840     5.5160 cc         1 LHF       0.115600
      8 C39         -0.8860     5.1560     6.0310 cd         1 LHF      -0.347800
      9 C4          -0.7120    -0.1050    -2.4270 ca         1 LHF       0.440800
     10 C4'          0.5890     0.5330     2.1760 c3         1 LHF       0.118100
     11 C40         -0.2920     5.0560     7.3050 cd         1 LHF       0.575500
     12 C5          -1.2170     0.8410    -3.3350 ca         1 LHF      -0.151200
     13 C5'          0.9020     1.7940     2.9830 c3         1 LHF      -0.079400
     14 C50          0.1530     9.2990     4.9110 c3         1 LHF      -0.347600
     15 C54          3.5320     9.3310     1.3050 ca         1 LHF      -0.031900
     16 C55          2.7050     8.2630     1.0110 ca         1 LHF      -0.070000
     17 C56          1.6360     7.9670     1.8360 ca         1 LHF      -0.155000
     18 C57          1.3940     8.7440     2.9590 ca         1 LHF       0.107100
     19 C58          2.2240     9.8170     3.2510 ca         1 LHF      -0.155000
     20 C59          3.2910    10.1090     2.4230 ca         1 LHF      -0.070000
     21 C6          -1.5110     0.4170    -4.6410 ca         1 LHF       0.782200
     22 C65         -0.3520     2.2430     3.7360 c3         1 LHF       0.151800
     23 C8          -0.8910     1.8640    -1.4500 cd         1 LHF       0.430700
     24 N1          -1.2990    -0.8570    -4.9550 nb         1 LHF      -0.770000
     25 N3          -0.5330    -1.3570    -2.8330 nb         1 LHF      -0.764000
     26 N31         -0.0500     3.4530     4.5110 n7         1 LHF      -0.822200
     27 N37         -0.8080     7.4890     6.2440 n          1 LHF      -0.365000
     28 N41          0.0020     6.1600     7.9800 nc         1 LHF      -0.630100
     29 N43         -0.0230     3.8200     7.8480 nz         1 LHF      -0.741600
     30 N6          -2.0100     1.3040    -5.5790 nv         1 LHF      -1.062500
     31 N7          -1.3010     2.0220    -2.6750 nc         1 LHF      -0.561100
     32 N9          -0.5160     0.5690    -1.2480 na         1 LHF      -0.264000
     33 O2'          2.0590    -1.1760    -0.6310 oh         1 LHF      -0.580800
     34 O3'          2.1560    -1.3260     1.9640 oh         1 LHF      -0.597800
     35 O4'         -0.3370     0.8460     1.1210 os         1 LHF      -0.428600
     36 O53          0.3430     8.4560     3.7720 os         1 LHF      -0.288900
     37 H1'         -0.3600    -1.0030     0.1960 h2         1 LHF       0.106700
     38 H2          -0.6580    -2.7390    -4.3660 h5         1 LHF       0.070100
     39 H2'          1.8770     0.9310    -0.4470 h1         1 LHF       0.071700
     40 H3'          2.7060     0.6620     1.7210 h1         1 LHF       0.077700
     41 H34         -1.7040     3.1020     5.7890 h1         1 LHF       0.092700
     42 H35         -1.5470     4.0030     4.2160 h1         1 LHF       0.092700
     43 H46         -1.4810     6.4390     4.4920 h4         1 LHF       0.209000
     44 H4'          0.1660    -0.2290     2.8200 h1         1 LHF       0.077700
     45 H5'2         1.6840     1.5800     3.7020 hc         1 LHF       0.064200
     46 H5'1         1.2250     2.5810     2.3120 hc         1 LHF       0.064200
     47 H52          0.1310     8.2310     4.7320 h1         1 LHF       0.231700
     48 H51          1.0380     9.4770     5.5100 h1         1 LHF       0.231700
     49 H62          0.9880     7.1280     1.6120 ha         1 LHF       0.156000
     50 H63          2.0380    10.4270     4.1270 ha         1 LHF       0.156000
     51 H64          3.9460    10.9390     2.6570 ha         1 LHF       0.161000
     52 H67         -1.1980     2.3760     3.0730 h1         1 LHF       0.050200
     53 H66         -0.5750     1.4610     4.4520 h1         1 LHF       0.050200
     54 H8          -0.9510     2.6190    -0.6760 h5         1 LHF       0.082800
     55 H33          0.6980     3.2650     5.1480 hn         1 LHF       0.306800
     56 H44         -0.7740     3.2110     7.5900 hn         1 LHF       0.475800
     57 H45          0.0330     3.8810     8.8460 hn         1 LHF       0.475800
     58 HN62        -1.3840     1.6990    -6.2520 hn         1 LHF       0.446800
     59 HN61        -2.9990     1.4050    -5.7000 hn         1 LHF       0.446800
     60 HO2'         2.2290    -0.9740    -1.5360 ho         1 LHF       0.438000
     61 H3           2.0970    -1.9260     1.2390 ho         1 LHF       0.443000
     62 C47         -1.0680     8.8230     5.6990 c3         1 LHF       0.130000
     63 Br1          4.9980     9.7280     0.1780 br         1 LHF      -0.059100
     64 H48         -1.2550     9.5170     6.5100 h1         1 LHF       0.117200
     65 H49         -1.9360     8.7820     5.0520 h1         1 LHF       0.117200
     66 H433         0.8360     3.4470     7.4950 hn         1 LHF       0.475800
     67 O42          0.0330     8.3610     8.1010 o          1 LHF      -0.534500
     68 H61          2.8970     7.6590     0.1320 ha         1 LHF       0.161000
@<TRIPOS>BOND
     1     2    24 ar
     2     2    25 ar
     3    24    21 ar
     4    25     9 ar
     5    21    30 1
     6    21    12 ar
     7     9    12 ar
     8     9    32 1
     9    33     3 1
    10    12    31 1
    11    34     4 1
    12     1    32 1
    13     1     3 1
    14     1    35 1
    15    32    23 1
    16     3     4 1
    17    35    10 1
    18     4    10 1
    19    31    23 2
    20    10    13 1
    21    13    22 1
    22    22    26 1
    23    26     5 1
    24    29    11 1
    25     5     8 1
    26    11     8 1
    27    11    28 2
    28     8     7 2
    29    63    15 1
    30    16    15 ar
    31    16    17 ar
    32    28     6 1
    33    15    20 ar
    34     7    27 1
    35    17    18 ar
    36     6    27 1
    37     6    67 2
    38    20    19 ar
    39    27    62 1
    40    18    19 ar
    41    18    36 1
    42    14    36 1
    43    14    62 1
    44     1    37 1
    45     2    38 1
    46     3    39 1
    47     4    40 1
    48     5    41 1
    49     5    42 1
    50     7    43 1
    51    10    44 1
    52    62    64 1
    53    62    65 1
    54    13    45 1
    55    13    46 1
    56    14    47 1
    57    14    48 1
    58    16    68 1
    59    17    49 1
    60    19    50 1
    61    20    51 1
    62    22    52 1
    63    22    53 1
    64    23    54 1
    65    26    55 1
    66    29    56 1
    67    29    57 1
    68    30    58 1
    69    30    59 1
    70    33    60 1
    71    34    61 1
    72    66    29 1
@<TRIPOS>SUBSTRUCTURE
     1 LHF         1 TEMP              0 ****  ****    0 ROOT
