@<TRIPOS>MOLECULE
LHG
  123   122     1     0     0
SMALL
bcc


@<TRIPOS>ATOM
      1 O1          4.3790    1.8060   -0.9820 oh        1 LHG     -0.648800
      2 C1          4.4660    2.9340   -0.1380 c3        1 LHG      0.118400
      3 C2          5.7910    2.9540    0.6320 c3        1 LHG      0.083100
      4 O2          6.8760    3.0550   -0.2830 oh        1 LHG     -0.618800
      5 C3          6.0060    1.7190    1.5220 c3        1 LHG      0.166400
      6 O3          5.2030    1.7700    2.6620 os        1 LHG     -0.567200
      7 P           4.1020    0.5570    2.8210 p5        1 LHG      1.449800
      8 O4          3.3400    0.7530    4.0690 o         1 LHG     -0.838500
      9 O5          3.5340    0.3760    1.4690 o         1 LHG     -0.838500
     10 O6          5.1860   -0.6700    3.0580 os        1 LHG     -0.583200
     11 C4          5.0020   -1.5010    4.1570 c3        1 LHG      0.187400
     12 C5          6.2990   -1.5350    4.9890 c3        1 LHG      0.119100
     13 C6          6.3740   -0.4670    6.0780 c3        1 LHG      0.123400
     14 O7          6.3100   -2.8500    5.5900 os        1 LHG     -0.429900
     15 C7          7.5020   -3.3640    5.9940 c         1 LHG      0.633100
     16 O9          8.5400   -2.7150    5.8350 o         1 LHG     -0.559000
     17 C8          7.3500   -4.7180    6.6220 c3        1 LHG     -0.130400
     18 C9          8.5360   -5.6030    6.3000 c3        1 LHG     -0.079400
     19 C10         8.4500   -6.9130    7.0530 c3        1 LHG     -0.078400
     20 O8          5.1070   -0.4080    6.7400 os        1 LHG     -0.448900
     21 C23         4.6580    0.8360    7.1170 c         1 LHG      0.664100
     22 O10         5.5000    1.7130    7.3250 o         1 LHG     -0.565000
     23 C24         3.1700    0.8950    7.2090 c3        1 LHG     -0.156400
     24 C11         9.6240   -7.8100    6.7220 c3        1 LHG     -0.079400
     25 C12         9.5460   -9.1180    7.4790 c3        1 LHG     -0.078400
     26 C13        10.7200  -10.0140    7.1500 c3        1 LHG     -0.079400
     27 C14        10.6430  -11.3220    7.9080 c3        1 LHG     -0.078400
     28 C15        11.8180  -12.2190    7.5790 c3        1 LHG     -0.079400
     29 C16        11.7420  -13.5260    8.3390 c3        1 LHG     -0.078400
     30 C17        12.9160  -14.4220    8.0100 c3        1 LHG     -0.079400
     31 C18        12.8400  -15.7290    8.7700 c3        1 LHG     -0.078400
     32 C19        14.0150  -16.6250    8.4420 c3        1 LHG     -0.079400
     33 C20        13.9390  -17.9310    9.2020 c3        1 LHG     -0.079400
     34 C21        15.1140  -18.8290    8.8740 c3        1 LHG     -0.080400
     35 C22        15.0420  -20.1310    9.6290 c3        1 LHG     -0.092100
     36 C25         2.7060    2.0290    8.0930 c3        1 LHG     -0.070400
     37 C26         1.2010    2.1780    8.0240 c3        1 LHG     -0.079400
     38 C27         0.7220    3.3080    8.9090 c3        1 LHG     -0.077400
     39 C28        -0.7830    3.4580    8.8420 c3        1 LHG     -0.079400
     40 C29        -1.2640    4.5870    9.7290 c3        1 LHG     -0.078400
     41 C30        -2.7690    4.7340    9.6640 c3        1 LHG     -0.079400
     42 C31        -3.2510    5.8610   10.5530 c3        1 LHG     -0.078400
     43 C32        -4.7560    6.0070   10.4890 c3        1 LHG     -0.079400
     44 C33        -5.2370    7.1320   11.3800 c3        1 LHG     -0.078400
     45 C34        -6.7430    7.2770   11.3170 c3        1 LHG     -0.079400
     46 C35        -7.2240    8.4010   12.2100 c3        1 LHG     -0.079400
     47 C36        -8.7300    8.5470   12.1470 c3        1 LHG     -0.079400
     48 C37        -9.2130    9.6700   13.0400 c3        1 LHG     -0.080400
     49 C38       -10.7110    9.8190   12.9800 c3        1 LHG     -0.092100
     50 HO1         4.0350    1.0690   -0.4480 ho        1 LHG      0.461000
     51 HC11        4.4340    3.8190   -0.8310 h1        1 LHG      0.042200
     52 HC12        3.6030    2.9810    0.5730 h1        1 LHG      0.042200
     53 HC2         5.8510    3.8860    1.2580 h1        1 LHG      0.071700
     54 H02         6.7540    2.3420   -0.9240 ho        1 LHG      0.404000
     55 HC31        5.7980    0.7840    0.9310 h1        1 LHG      0.035200
     56 HC32        7.0850    1.7200    1.8500 h1        1 LHG      0.035200
     57 HC41        4.1430   -1.1500    4.7930 h1        1 LHG      0.054200
     58 HC42        4.8030   -2.5490    3.7880 h1        1 LHG      0.054200
     59 HC5         7.1970   -1.4230    4.3200 h1        1 LHG      0.086700
     60 HC61        6.6240    0.5250    5.6160 h1        1 LHG      0.066200
     61 HC62        7.1460   -0.7390    6.8450 h1        1 LHG      0.066200
     62 HC81        7.2650   -4.5640    7.7310 hc        1 LHG      0.073700
     63 HC82        6.3970   -5.1910    6.2680 hc        1 LHG      0.073700
     64 HC91        8.5680   -5.8000    5.1970 hc        1 LHG      0.056700
     65 HC92        9.4850   -5.0660    6.5670 hc        1 LHG      0.056700
     66 H101        8.4290   -6.7130    8.1570 hc        1 LHG      0.038200
     67 H102        7.4920   -7.4360    6.7930 hc        1 LHG      0.038200
     68 H241        2.8080    1.0310    6.1400 hc        1 LHG      0.115700
     69 H242        2.7750   -0.0870    7.5750 hc        1 LHG      0.115700
     70 H111       10.5820   -7.2830    6.9760 hc        1 LHG      0.041700
     71 H112        9.6420   -8.0140    5.6190 hc        1 LHG      0.041700
     72 H121        9.5270   -8.9140    8.5820 hc        1 LHG      0.038200
     73 H122        8.5880   -9.6430    7.2250 hc        1 LHG      0.038200
     74 H131       11.6780   -9.4880    7.4030 hc        1 LHG      0.039700
     75 H132       10.7380  -10.2200    6.0470 hc        1 LHG      0.039700
     76 H141       10.6240  -11.1170    9.0110 hc        1 LHG      0.038700
     77 H142        9.6860  -11.8490    7.6540 hc        1 LHG      0.038700
     78 H151       11.8360  -12.4250    6.4760 hc        1 LHG      0.039700
     79 H152       12.7750  -11.6910    7.8330 hc        1 LHG      0.039700
     80 H161       10.7840  -14.0530    8.0850 hc        1 LHG      0.038700
     81 H162       11.7230  -13.3190    9.4410 hc        1 LHG      0.038700
     82 H171       12.9350  -14.6280    6.9080 hc        1 LHG      0.039700
     83 H172       13.8740  -13.8940    8.2630 hc        1 LHG      0.039700
     84 H181       12.8220  -15.5220    9.8730 hc        1 LHG      0.038700
     85 H182       11.8830  -16.2560    8.5170 hc        1 LHG      0.038700
     86 H191       14.0330  -16.8320    7.3390 hc        1 LHG      0.039200
     87 H192       14.9730  -16.0970    8.6950 hc        1 LHG      0.039200
     88 H201       13.9210  -17.7250   10.3050 hc        1 LHG      0.038700
     89 H202       12.9820  -18.4590    8.9490 hc        1 LHG      0.038700
     90 H211       15.1310  -19.0330    7.7710 hc        1 LHG      0.038200
     91 H212       16.0700  -18.2990    9.1260 hc        1 LHG      0.038200
     92 H221       14.1070  -20.6850    9.3720 hc        1 LHG      0.031367
     93 H222       15.0490  -19.9490   10.7310 hc        1 LHG      0.031367
     94 H223       15.9160  -20.7770    9.3730 hc        1 LHG      0.031367
     95 H251        3.0210    1.8430    9.1530 hc        1 LHG      0.044700
     96 H252        3.2000    2.9820    7.7630 hc        1 LHG      0.044700
     97 H261        0.8940    2.3720    6.9620 hc        1 LHG      0.045200
     98 H262        0.7120    1.2180    8.3400 hc        1 LHG      0.045200
     99 H271        1.0340    3.1150    9.9690 hc        1 LHG      0.036700
    100 H272        1.2100    4.2660    8.5900 hc        1 LHG      0.036700
    101 H281       -1.0930    3.6540    7.7820 hc        1 LHG      0.039700
    102 H282       -1.2710    2.4980    9.1570 hc        1 LHG      0.039700
    103 H291       -0.7780    5.5470    9.4110 hc        1 LHG      0.037700
    104 H292       -0.9510    4.3930   10.7880 hc        1 LHG      0.037700
    105 H301       -3.2550    3.7730    9.9780 hc        1 LHG      0.039200
    106 H302       -3.0820    4.9310    8.6040 hc        1 LHG      0.039200
    107 H311       -2.7660    6.8220   10.2370 hc        1 LHG      0.038200
    108 H312       -2.9360    5.6650   11.6120 hc        1 LHG      0.038200
    109 H321       -5.0700    6.2050    9.4310 hc        1 LHG      0.039700
    110 H322       -5.2410    5.0450   10.8030 hc        1 LHG      0.039700
    111 H331       -4.9230    6.9340   12.4390 hc        1 LHG      0.038700
    112 H332       -4.7530    8.0940   11.0660 hc        1 LHG      0.038700
    113 H341       -7.2270    6.3150   11.6300 hc        1 LHG      0.039200
    114 H342       -7.0570    7.4770   10.2590 hc        1 LHG      0.039200
    115 H351       -6.7400    9.3640   11.8970 hc        1 LHG      0.038700
    116 H352       -6.9100    8.2020   13.2680 hc        1 LHG      0.038700
    117 H361       -9.2140    7.5840   12.4580 hc        1 LHG      0.039200
    118 H362       -9.0440    8.7470   11.0880 hc        1 LHG      0.039200
    119 H371       -8.7260   10.6310   12.7270 hc        1 LHG      0.037700
    120 H372       -8.8960    9.4690   14.0970 hc        1 LHG      0.037700
    121 H381      -11.2140    8.8780   13.3110 hc        1 LHG      0.031367
    122 H382      -11.0440   10.0440   11.9380 hc        1 LHG      0.031367
    123 H383      -11.0460   10.6510   13.6450 hc        1 LHG      0.031367
@<TRIPOS>BOND
     1    1    2 1   
     2    1   50 1   
     3    2    3 1   
     4    2   51 1   
     5    2   52 1   
     6    3    4 1   
     7    3    5 1   
     8    3   53 1   
     9    4   54 1   
    10    5    6 1   
    11    5   55 1   
    12    5   56 1   
    13    6    7 1   
    14    7    8 1   
    15    7    9 1   
    16    7   10 1   
    17   10   11 1   
    18   11   12 1   
    19   11   57 1   
    20   11   58 1   
    21   12   13 1   
    22   12   14 1   
    23   12   59 1   
    24   13   20 1   
    25   13   60 1   
    26   13   61 1   
    27   14   15 1   
    28   15   16 2   
    29   15   17 1   
    30   17   18 1   
    31   17   62 1   
    32   17   63 1   
    33   18   19 1   
    34   18   64 1   
    35   18   65 1   
    36   19   24 1   
    37   19   66 1   
    38   19   67 1   
    39   20   21 1   
    40   21   22 2   
    41   21   23 1   
    42   23   36 1   
    43   23   68 1   
    44   23   69 1   
    45   24   25 1   
    46   24   70 1   
    47   24   71 1   
    48   25   26 1   
    49   25   72 1   
    50   25   73 1   
    51   26   27 1   
    52   26   74 1   
    53   26   75 1   
    54   27   28 1   
    55   27   76 1   
    56   27   77 1   
    57   28   29 1   
    58   28   78 1   
    59   28   79 1   
    60   29   30 1   
    61   29   80 1   
    62   29   81 1   
    63   30   31 1   
    64   30   82 1   
    65   30   83 1   
    66   31   32 1   
    67   31   84 1   
    68   31   85 1   
    69   32   33 1   
    70   32   86 1   
    71   32   87 1   
    72   33   34 1   
    73   33   88 1   
    74   33   89 1   
    75   34   35 1   
    76   34   90 1   
    77   34   91 1   
    78   35   92 1   
    79   35   93 1   
    80   35   94 1   
    81   36   37 1   
    82   36   95 1   
    83   36   96 1   
    84   37   38 1   
    85   37   97 1   
    86   37   98 1   
    87   38   39 1   
    88   38   99 1   
    89   38  100 1   
    90   39   40 1   
    91   39  101 1   
    92   39  102 1   
    93   40   41 1   
    94   40  103 1   
    95   40  104 1   
    96   41   42 1   
    97   41  105 1   
    98   41  106 1   
    99   42   43 1   
   100   42  107 1   
   101   42  108 1   
   102   43   44 1   
   103   43  109 1   
   104   43  110 1   
   105   44   45 1   
   106   44  111 1   
   107   44  112 1   
   108   45   46 1   
   109   45  113 1   
   110   45  114 1   
   111   46   47 1   
   112   46  115 1   
   113   46  116 1   
   114   47   48 1   
   115   47  117 1   
   116   47  118 1   
   117   48   49 1   
   118   48  119 1   
   119   48  120 1   
   120   49  121 1   
   121   49  122 1   
   122   49  123 1   
@<TRIPOS>SUBSTRUCTURE
     1 LHG         1 TEMP              0 ****  ****    0 ROOT
