@<TRIPOS>MOLECULE
molecule
  123   122     1     0     0
SMALL
bcc


@<TRIPOS>ATOM
      1 O1           0.0000     0.0000     0.0000 oh         1 LHG      -0.619800
      2 C1           1.4290     0.0000     0.0000 c3         1 LHG       0.117400
      3 C2           1.9400     0.0000     1.4430 c3         1 LHG       0.149100
      4 O2           1.5610     1.2210     2.0810 oh         1 LHG      -0.594800
      5 C3           3.4650    -0.1250     1.4440 c3         1 LHG       0.152400
      6 O3           3.9320    -0.2410     2.7890 os         1 LHG      -0.541200
      7 P            5.5350    -0.3680     2.7160 p5         1 LHG       1.280800
      8 O4           5.9310    -1.7410     1.9720 o          1 LHG      -0.822500
      9 O5           6.0870     0.7790     1.9620 o          1 LHG      -0.822500
     10 O6           6.1410    -0.3730     4.2070 os         1 LHG      -0.522200
     11 C4           7.5640    -0.3690     4.0740 c3         1 LHG       0.141400
     12 C5           8.2060    -0.3720     5.4630 c3         1 LHG       0.154100
     13 C6           7.6660     0.8050     6.2780 c3         1 LHG       0.167400
     14 O7           7.8870    -1.6160     6.1410 os         1 LHG      -0.414900
     15 C7           8.6980    -2.6780     6.0090 c          1 LHG       0.641100
     16 O9           9.6930    -2.5980     5.3290 o          1 LHG      -0.567000
     17 C8           8.3680    -3.9690     6.7130 c3         1 LHG      -0.124400
     18 C9           9.4440    -5.0110     6.4000 c3         1 LHG      -0.072400
     19 C10          9.1090    -6.3210     7.1140 c3         1 LHG      -0.084400
     20 O8           6.2150     0.7460     6.3100 os         1 LHG      -0.370900
     21 C23          5.5190     1.6840     6.9730 c          1 LHG       0.639100
     22 O10          6.1010     2.5770     7.5420 o          1 LHG      -0.592000
     23 C24          4.0140     1.6220     7.0060 c3         1 LHG      -0.124400
     24 C11         10.1860    -7.3620     6.8010 c3         1 LHG      -0.080400
     25 C12          9.8500    -8.6730     7.5140 c3         1 LHG      -0.082400
     26 C13         10.9270    -9.7140     7.2010 c3         1 LHG      -0.082400
     27 C14         10.5920   -11.0260     7.9150 c3         1 LHG      -0.082400
     28 C15         11.6680   -12.0660     7.6010 c3         1 LHG      -0.082400
     29 C16         11.3330   -13.3780     8.3150 c3         1 LHG      -0.082400
     30 C17         12.4090   -14.4190     8.0020 c3         1 LHG      -0.082400
     31 C18         12.0740   -15.7300     8.7150 c3         1 LHG      -0.082400
     32 C19         13.1510   -16.7710     8.4030 c3         1 LHG      -0.082400
     33 C20         12.8140   -18.0820     9.1170 c3         1 LHG      -0.081400
     34 C21         13.8920   -19.1230     8.8040 c3         1 LHG      -0.084400
     35 C22         13.5570   -20.4340     9.5180 c3         1 LHG      -0.092100
     36 C25          3.4730     2.7990     7.8210 c3         1 LHG      -0.072400
     37 C26          1.9450     2.7360     7.8550 c3         1 LHG      -0.084400
     38 C27          1.4050     3.9130     8.6700 c3         1 LHG      -0.080400
     39 C28         -0.1240     3.8510     8.7040 c3         1 LHG      -0.082400
     40 C29         -0.6650     5.0270     9.5190 c3         1 LHG      -0.082400
     41 C30         -2.1930     4.9640     9.5530 c3         1 LHG      -0.082400
     42 C31         -2.7330     6.1420    10.3680 c3         1 LHG      -0.082400
     43 C32         -4.2620     6.0790    10.4020 c3         1 LHG      -0.082400
     44 C33         -4.8020     7.2550    11.2170 c3         1 LHG      -0.082400
     45 C34         -6.3310     7.1930    11.2510 c3         1 LHG      -0.082400
     46 C35         -6.8710     8.3700    12.0650 c3         1 LHG      -0.082400
     47 C36         -8.3990     8.3070    12.0990 c3         1 LHG      -0.081400
     48 C37         -8.9400     9.4840    12.9140 c3         1 LHG      -0.084400
     49 C38        -10.4690     9.4210    12.9490 c3         1 LHG      -0.092100
     50 HO1         -0.3140    -0.1040    -0.8830 ho         1 LHG       0.390000
     51 HC11         1.7900     0.8840    -0.5110 h1         1 LHG       0.030200
     52 HC12         1.7900    -0.8840    -0.5110 h1         1 LHG       0.030200
     53 HC2          1.5080    -0.8370     1.9790 h1         1 LHG       0.043700
     54 H02          0.9140     1.0420     2.7430 ho         1 LHG       0.394000
     55 HC31         3.7550    -1.0050     0.8830 h1         1 LHG       0.063200
     56 HC32         3.8990     0.7550     0.9850 h1         1 LHG       0.063200
     57 HC41         7.8740     0.5190     3.5360 h1         1 LHG       0.069200
     58 HC42         7.8790    -1.2500     3.5290 h1         1 LHG       0.069200
     59 HC5          9.2810    -0.2790     5.3640 h1         1 LHG       0.068700
     60 HC61         8.0520     0.7520     7.2890 h1         1 LHG       0.046700
     61 HC62         7.9790     1.7360     5.8200 h1         1 LHG       0.046700
     62 HC81         7.4060    -4.3310     6.3720 hc         1 LHG       0.069700
     63 HC82         8.3310    -3.7990     7.7820 hc         1 LHG       0.069700
     64 HC91         9.4820    -5.1810     5.3310 hc         1 LHG       0.058700
     65 HC92        10.4070    -4.6490     6.7420 hc         1 LHG       0.058700
     66 H101         9.0710    -6.1510     8.1830 hc         1 LHG       0.039200
     67 H102         8.1470    -6.6830     6.7710 hc         1 LHG       0.039200
     68 H241         3.7010     0.6920     7.4640 hc         1 LHG       0.079700
     69 H242         3.6280     1.6750     5.9960 hc         1 LHG       0.079700
     70 H111        10.2240    -7.5320     5.7310 hc         1 LHG       0.043200
     71 H112        11.1480    -7.0010     7.1440 hc         1 LHG       0.043200
     72 H121         9.8120    -8.5030     8.5830 hc         1 LHG       0.039700
     73 H122         8.8880    -9.0350     7.1710 hc         1 LHG       0.039700
     74 H131        11.8890    -9.3520     7.5430 hc         1 LHG       0.041200
     75 H132        10.9650    -9.8840     6.1320 hc         1 LHG       0.041200
     76 H141        10.5550   -10.8560     8.9840 hc         1 LHG       0.040200
     77 H142         9.6300   -11.3870     7.5730 hc         1 LHG       0.040200
     78 H151        12.6300   -11.7050     7.9430 hc         1 LHG       0.040700
     79 H152        11.7050   -12.2360     6.5320 hc         1 LHG       0.040700
     80 H161        11.2960   -13.2070     9.3840 hc         1 LHG       0.040200
     81 H162        10.3710   -13.7390     7.9730 hc         1 LHG       0.040200
     82 H171        13.3720   -14.0580     8.3440 hc         1 LHG       0.041200
     83 H172        12.4470   -14.5890     6.9330 hc         1 LHG       0.041200
     84 H181        11.1120   -16.0910     8.3730 hc         1 LHG       0.040200
     85 H182        12.0360   -15.5590     9.7850 hc         1 LHG       0.040200
     86 H191        14.1130   -16.4090     8.7470 hc         1 LHG       0.040700
     87 H192        13.1890   -16.9410     7.3340 hc         1 LHG       0.040700
     88 H201        11.8520   -18.4430     8.7740 hc         1 LHG       0.040700
     89 H202        12.7760   -17.9120    10.1860 hc         1 LHG       0.040700
     90 H211        13.9290   -19.2930     7.7350 hc         1 LHG       0.039700
     91 H212        14.8540   -18.7610     9.1460 hc         1 LHG       0.039700
     92 H221        12.5950   -20.7960     9.1750 hc         1 LHG       0.031367
     93 H222        14.3190   -21.1710     9.2960 hc         1 LHG       0.031367
     94 H223        13.5190   -20.2640    10.5870 hc         1 LHG       0.031367
     95 H251         3.7860     3.7290     7.3630 hc         1 LHG       0.052700
     96 H252         3.8600     2.7460     8.8320 hc         1 LHG       0.052700
     97 H261         1.5590     2.7880     6.8450 hc         1 LHG       0.043200
     98 H262         1.6320     1.8050     8.3140 hc         1 LHG       0.043200
     99 H271         1.7180     4.8430     8.2110 hc         1 LHG       0.040700
    100 H272         1.7910     3.8610     9.6810 hc         1 LHG       0.040700
    101 H281        -0.5100     3.9030     7.6930 hc         1 LHG       0.041200
    102 H282        -0.4370     2.9200     9.1620 hc         1 LHG       0.041200
    103 H291        -0.2780     4.9750    10.5300 hc         1 LHG       0.040200
    104 H292        -0.3520     5.9580     9.0610 hc         1 LHG       0.040200
    105 H301        -2.5790     5.0160     8.5420 hc         1 LHG       0.041200
    106 H302        -2.5060     4.0340    10.0120 hc         1 LHG       0.041200
    107 H311        -2.4200     7.0720     9.9090 hc         1 LHG       0.040200
    108 H312        -2.3470     6.0890    11.3780 hc         1 LHG       0.040200
    109 H321        -4.6480     6.1320     9.3910 hc         1 LHG       0.041200
    110 H322        -4.5750     5.1480    10.8590 hc         1 LHG       0.041200
    111 H331        -4.4160     7.2020    12.2270 hc         1 LHG       0.040200
    112 H332        -4.4890     8.1860    10.7590 hc         1 LHG       0.040200
    113 H341        -6.6440     6.2620    11.7090 hc         1 LHG       0.041200
    114 H342        -6.7170     7.2450    10.2400 hc         1 LHG       0.041200
    115 H351        -6.5580     9.3000    11.6070 hc         1 LHG       0.040200
    116 H352        -6.4840     8.3180    13.0760 hc         1 LHG       0.040200
    117 H361        -8.7120     7.3760    12.5570 hc         1 LHG       0.040700
    118 H362        -8.7850     8.3600    11.0890 hc         1 LHG       0.040700
    119 H371        -8.5540     9.4310    13.9250 hc         1 LHG       0.039200
    120 H372        -8.6270    10.4140    12.4560 hc         1 LHG       0.039200
    121 H381       -10.8550     9.4670    11.9370 hc         1 LHG       0.031367
    122 H382       -10.7820     8.4940    13.4130 hc         1 LHG       0.031367
    123 H383       -10.8520    10.2580    13.5200 hc         1 LHG       0.031367
@<TRIPOS>BOND
     1     1     2 1
     2     1    50 1
     3     2     3 1
     4     2    51 1
     5     2    52 1
     6     3     4 1
     7     3     5 1
     8     3    53 1
     9     4    54 1
    10     5     6 1
    11     5    55 1
    12     5    56 1
    13     6     7 1
    14     7     8 1
    15     7     9 1
    16     7    10 1
    17    10    11 1
    18    11    12 1
    19    11    57 1
    20    11    58 1
    21    12    13 1
    22    12    14 1
    23    12    59 1
    24    13    20 1
    25    13    60 1
    26    13    61 1
    27    14    15 1
    28    15    16 2
    29    15    17 1
    30    17    18 1
    31    17    62 1
    32    17    63 1
    33    18    19 1
    34    18    64 1
    35    18    65 1
    36    19    24 1
    37    19    66 1
    38    19    67 1
    39    20    21 1
    40    21    22 2
    41    21    23 1
    42    23    36 1
    43    23    68 1
    44    23    69 1
    45    24    25 1
    46    24    70 1
    47    24    71 1
    48    25    26 1
    49    25    72 1
    50    25    73 1
    51    26    27 1
    52    26    74 1
    53    26    75 1
    54    27    28 1
    55    27    76 1
    56    27    77 1
    57    28    29 1
    58    28    78 1
    59    28    79 1
    60    29    30 1
    61    29    80 1
    62    29    81 1
    63    30    31 1
    64    30    82 1
    65    30    83 1
    66    31    32 1
    67    31    84 1
    68    31    85 1
    69    32    33 1
    70    32    86 1
    71    32    87 1
    72    33    34 1
    73    33    88 1
    74    33    89 1
    75    34    35 1
    76    34    90 1
    77    34    91 1
    78    35    92 1
    79    35    93 1
    80    35    94 1
    81    36    37 1
    82    36    95 1
    83    36    96 1
    84    37    38 1
    85    37    97 1
    86    37    98 1
    87    38    39 1
    88    38    99 1
    89    38   100 1
    90    39    40 1
    91    39   101 1
    92    39   102 1
    93    40    41 1
    94    40   103 1
    95    40   104 1
    96    41    42 1
    97    41   105 1
    98    41   106 1
    99    42    43 1
   100    42   107 1
   101    42   108 1
   102    43    44 1
   103    43   109 1
   104    43   110 1
   105    44    45 1
   106    44   111 1
   107    44   112 1
   108    45    46 1
   109    45   113 1
   110    45   114 1
   111    46    47 1
   112    46   115 1
   113    46   116 1
   114    47    48 1
   115    47   117 1
   116    47   118 1
   117    48    49 1
   118    48   119 1
   119    48   120 1
   120    49   121 1
   121    49   122 1
   122    49   123 1
@<TRIPOS>SUBSTRUCTURE
     1 LHG         1 TEMP              0 ****  ****    0 ROOT
