@<TRIPOS>MOLECULE
molecule
   52    56     1     0     0
SMALL
bcc


@<TRIPOS>ATOM
      1 N1           0.0000     0.0000     0.0000 n          1 LHJ      -0.316000
      2 N3          -2.0320     0.0110     1.4600 na         1 LHJ       0.118300
      3 C4           2.0680     0.0000     1.2190 cc         1 LHJ      -0.188400
      4 C5           1.3830    -0.0010     2.4180 cd         1 LHJ       0.033800
      5 C6          -1.0120     0.0060     3.4160 cd         1 LHJ       0.387200
      6 C7          -0.7230    -0.0000    -1.2750 c3         1 LHJ       0.066300
      7 C8           3.5500    -0.0000     1.2070 ca         1 LHJ      -0.033800
      8 C10         -3.6170    -1.1890     0.0800 ca         1 LHJ       0.181900
      9 C13         -4.5850     1.2160    -0.9010 ca         1 LHJ      -0.184000
     10 C15          4.2450    -1.1620     0.8850 ca         1 LHJ      -0.035000
     11 C17          6.3290     0.0180     1.1910 ca         1 LHJ      -0.100000
     12 C22          8.4710    -3.5940     0.1880 cx         1 LHJ       0.062700
     13 C24          9.8950    -3.7310     0.7320 cx         1 LHJ      -0.158900
     14 C23          9.6670    -3.4560    -0.7560 cx         1 LHJ      -0.158900
     15 N4           7.7330    -2.3750     0.5260 ns         1 LHJ      -0.553900
     16 O2           5.7820    -3.4040     0.2620 o          1 LHJ      -0.605100
     17 C16          5.6390    -1.1540     0.8760 ca         1 LHJ      -0.155600
     18 C18          5.6330     1.1690     1.5050 ca         1 LHJ      -0.141000
     19 C19          4.2520     1.1660     1.5150 ca         1 LHJ      -0.042300
     20 C3           1.3460     0.0000     0.0000 c          1 LHJ       0.716700
     21 O1           1.9490    -0.0010    -1.0590 o          1 LHJ      -0.630500
     22 C2          -0.7030     0.0050     1.1750 cc         1 LHJ       0.115300
     23 C1          -0.0280     0.0050     2.3990 cd         1 LHJ      -0.346100
     24 N2          -2.1850     0.0140     2.8500 nc         1 LHJ      -0.476800
     25 C9          -3.0720     0.0130     0.5190 ca         1 LHJ      -0.047200
     26 C14         -3.5610     1.2160     0.0250 ca         1 LHJ      -0.062000
     27 C12         -5.1280     0.0190    -1.3380 ca         1 LHJ       0.179900
     28 F2          -6.1300     0.0220    -2.2440 f          1 LHJ      -0.123900
     29 C11         -4.6430    -1.1820    -0.8480 ca         1 LHJ      -0.213000
     30 H5           1.9110    -0.1980     3.3430 ha         1 LHJ       0.147000
     31 H6          -0.8220     0.0070     4.4830 h4         1 LHJ       0.060100
     32 H7          -1.3490     0.8820    -1.3350 h1         1 LHJ       0.061700
     33 H7A         -1.3420    -0.8870    -1.3390 h1         1 LHJ       0.061700
     34 H7B         -0.0130     0.0040    -2.0930 h1         1 LHJ       0.061700
     35 H13         -4.9650     2.1550    -1.2860 ha         1 LHJ       0.160000
     36 H15          3.7040    -2.0690     0.6410 ha         1 LHJ       0.164000
     37 H17          7.4120     0.0260     1.1840 ha         1 LHJ       0.122000
     38 H20          3.0780     2.3360     2.8510 hc         1 LHJ       0.046367
     39 H20A         2.7050     2.5800     1.1390 hc         1 LHJ       0.046367
     40 H20B         4.1800     3.2700     1.8310 hc         1 LHJ       0.046367
     41 H22          7.9280    -4.5280     0.0990 h1         1 LHJ       0.124700
     42 H24         10.2060    -4.7390     0.9790 hc         1 LHJ       0.076700
     43 H24A        10.2560    -2.8910     1.3120 hc         1 LHJ       0.076700
     44 H23          9.8890    -2.4480    -1.0850 hc         1 LHJ       0.076700
     45 H23A         9.8390    -4.2960    -1.4180 hc         1 LHJ       0.076700
     46 HN4          8.2290    -1.5460     0.7880 hn         1 LHJ       0.317500
     47 H18          6.1720     2.0770     1.7470 ha         1 LHJ       0.133000
     48 H14         -3.1380     2.1530     0.3660 ha         1 LHJ       0.161000
     49 H11         -5.0680    -2.1180    -1.1910 ha         1 LHJ       0.172000
     50 C20          3.5010     2.4260     1.8580 c3         1 LHJ      -0.049800
     51 C21          6.3840    -2.3850     0.5340 c          1 LHJ       0.681700
     52 F1          -3.1410    -2.3600     0.5540 f          1 LHJ      -0.112900
@<TRIPOS>BOND
     1    22     1 1
     2    20     1 1
     3     1     6 1
     4    24     2 1
     5     2    22 1
     6     2    25 1
     7     4     3 2
     8     7     3 1
     9     3    20 1
    10     4    23 1
    11     4    30 1
    12     5    23 1
    13     5    24 2
    14     5    31 1
    15     6    32 1
    16     6    33 1
    17     6    34 1
    18    10     7 ar
    19     7    19 ar
    20    52     8 1
    21     8    25 ar
    22     8    29 ar
    23    26     9 ar
    24    27     9 ar
    25     9    35 1
    26    17    10 ar
    27    10    36 1
    28    17    11 ar
    29    11    18 ar
    30    11    37 1
    31    19    50 1
    32    50    38 1
    33    50    39 1
    34    50    40 1
    35    16    51 2
    36    15    51 1
    37    51    17 1
    38    14    12 1
    39    13    12 1
    40    12    15 1
    41    12    41 1
    42    14    13 1
    43    13    42 1
    44    13    43 1
    45    14    44 1
    46    14    45 1
    47    15    46 1
    48    18    19 ar
    49    18    47 1
    50    20    21 2
    51    23    22 2
    52    25    26 ar
    53    26    48 1
    54    29    27 ar
    55    27    28 1
    56    29    49 1
@<TRIPOS>SUBSTRUCTURE
     1 LHJ         1 TEMP              0 ****  ****    0 ROOT
