@<TRIPOS>MOLECULE
LHL
   63    66     1     0     0
SMALL
bcc


@<TRIPOS>ATOM
      1 N1           0.0000     0.0000     0.0000 nb         1 LHL      -0.719000
      2 C2           1.3240     0.0000     0.0000 ca         1 LHL       0.733900
      3 N2           1.9940     0.0040    -1.2120 nu         1 LHL      -0.272300
      4 N3           2.0290     0.0000     1.1240 nb         1 LHL      -0.728000
      5 C4           1.4140    -0.0030     2.2990 ca         1 LHL       0.466200
      6 C5           3.5870    -0.0040     3.4280 c3         1 LHL       0.054300
      7 N5           2.1230    -0.0050     3.4870 n          1 LHL      -0.040300
      8 C6           1.5330    -0.0070     4.6900 c          1 LHL       0.618500
      9 O6           2.2380    -0.0080     5.6800 o          1 LHL      -0.710500
     10 N7           0.1980    -0.0080     4.8560 n          1 LHL      -0.033000
     11 C8          -0.6720    -0.0070     3.6660 c3         1 LHL       0.129300
     12 C9           0.0180    -0.0040     2.3230 ca         1 LHL      -0.461900
     13 C10         -0.6810    -0.0030     1.1410 ca         1 LHL       0.533200
     14 C21          1.2770    -0.1070    -2.4090 ca         1 LHL      -0.048400
     15 C22          1.7240     0.5470    -3.5490 ca         1 LHL      -0.074500
     16 C23          1.0160     0.4370    -4.7310 ca         1 LHL      -0.158500
     17 C24         -0.1410    -0.3250    -4.7760 ca         1 LHL       0.138100
     18 O24         -0.8390    -0.4340    -5.9390 os         1 LHL      -0.305900
     19 C25         -0.5890    -0.9790    -3.6380 ca         1 LHL      -0.158500
     20 C26          0.1200    -0.8740    -2.4580 ca         1 LHL      -0.074500
     21 C27         -2.0210    -1.2350    -5.9150 c3         1 LHL       0.201400
     22 C28         -2.6650    -1.2360    -7.3040 c3         1 LHL       0.134800
     23 N28         -1.7880    -1.9410    -8.2480 n3         1 LHL      -0.537600
     24 C29         -2.5170    -2.3090    -9.4690 c3         1 LHL       0.133300
     25 C30         -1.7220    -3.3650   -10.2410 c3         1 LHL      -0.022100
     26 C31         -0.6020    -1.1360    -8.5670 c3         1 LHL       0.133300
     27 C32         -1.0390     0.2440    -9.0640 c3         1 LHL      -0.022100
     28 C71         -0.3580    -0.0110     6.1410 ca         1 LHL      -0.048400
     29 C72         -0.6340     1.1900     6.7830 ca         1 LHL      -0.014600
     30 Cl72        -0.2930     2.6970     5.9920 cl         1 LHL      -0.004400
     31 C73         -1.1830     1.1840     8.0510 ca         1 LHL      -0.097000
     32 C74         -1.4570    -0.0160     8.6830 ca         1 LHL      -0.068000
     33 C75         -1.1820    -1.2140     8.0480 ca         1 LHL      -0.097000
     34 C76         -0.6380    -1.2150     6.7760 ca         1 LHL      -0.014600
     35 Cl76        -0.3010    -2.7180     5.9760 cl         1 LHL      -0.004400
     36 HN2          2.9910     0.0920    -1.2320 hn         1 LHL       0.291800
     37 H5           3.9360    -0.9740     3.0970 h1         1 LHL       0.029033
     38 H5A          3.9190     0.7560     2.7310 h1         1 LHL       0.029033
     39 H5B          3.9880     0.2080     4.4110 h1         1 LHL       0.029033
     40 H8          -1.3040    -0.8850     3.7140 h1         1 LHL       0.018700
     41 H8A         -1.3040     0.8720     3.7170 h1         1 LHL       0.018700
     42 H10         -1.7640    -0.0030     1.1390 h4         1 LHL      -0.015900
     43 H22          2.6290     1.1420    -3.5130 ha         1 LHL       0.119500
     44 H23          1.3650     0.9460    -5.6210 ha         1 LHL       0.118000
     45 H25         -1.4920    -1.5760    -3.6760 ha         1 LHL       0.118000
     46 H26         -0.2290    -1.3850    -1.5690 ha         1 LHL       0.119500
     47 H27         -2.7200    -0.8270    -5.1940 h1         1 LHL       0.008200
     48 H27A        -1.7650    -2.2490    -5.6350 h1         1 LHL       0.008200
     49 H28         -3.6230    -1.7390    -7.2570 h1         1 LHL       0.023200
     50 H28A        -2.8080    -0.2150    -7.6360 h1         1 LHL       0.023200
     51 H29         -2.6490    -1.4310   -10.0900 h1         1 LHL       0.023950
     52 H29A        -3.4870    -2.7110    -9.2030 h1         1 LHL       0.023950
     53 H30         -2.4060    -4.0300   -10.7530 hc         1 LHL       0.008700
     54 H30A        -1.1140    -3.9350    -9.5500 hc         1 LHL       0.008700
     55 H30B        -1.0820    -2.8760   -10.9660 hc         1 LHL       0.008700
     56 H31          0.0080    -1.0230    -7.6790 h1         1 LHL       0.023950
     57 H31A        -0.0260    -1.6310    -9.3390 h1         1 LHL       0.023950
     58 H32         -0.3730     0.5720    -9.8530 hc         1 LHL       0.008700
     59 H32A        -1.0040     0.9510    -8.2450 hc         1 LHL       0.008700
     60 H32B        -2.0510     0.1860    -9.4470 hc         1 LHL       0.008700
     61 H73         -1.3990     2.1200     8.5520 ha         1 LHL       0.119000
     62 H74         -1.8850    -0.0180     9.6780 ha         1 LHL       0.110000
     63 H75         -1.3990    -2.1520     8.5440 ha         1 LHL       0.119000
@<TRIPOS>BOND
     1     1     2 ar  
     2     1    13 ar  
     3     2     3 1   
     4     2     4 ar  
     5     3    14 1   
     6     3    36 1   
     7     4     5 ar  
     8     5     7 1   
     9     5    12 ar  
    10     6     7 1   
    11     6    37 1   
    12     6    38 1   
    13     6    39 1   
    14     7     8 1   
    15     8     9 2   
    16     8    10 1   
    17    10    11 1   
    18    10    28 1   
    19    11    12 1   
    20    11    40 1   
    21    11    41 1   
    22    12    13 ar  
    23    13    42 1   
    24    14    15 ar  
    25    14    20 ar  
    26    15    16 ar  
    27    15    43 1   
    28    16    17 ar  
    29    16    44 1   
    30    17    18 1   
    31    17    19 ar  
    32    18    21 1   
    33    19    20 ar  
    34    19    45 1   
    35    20    46 1   
    36    21    22 1   
    37    21    47 1   
    38    21    48 1   
    39    22    23 1   
    40    22    49 1   
    41    22    50 1   
    42    23    24 1   
    43    23    26 1   
    44    24    25 1   
    45    24    51 1   
    46    24    52 1   
    47    25    53 1   
    48    25    54 1   
    49    25    55 1   
    50    26    27 1   
    51    26    56 1   
    52    26    57 1   
    53    27    58 1   
    54    27    59 1   
    55    27    60 1   
    56    28    29 ar  
    57    28    34 ar  
    58    29    30 1   
    59    29    31 ar  
    60    31    32 ar  
    61    31    61 1   
    62    32    33 ar  
    63    32    62 1   
    64    33    34 ar  
    65    33    63 1   
    66    34    35 1   
@<TRIPOS>SUBSTRUCTURE
     1 LHL         1 TEMP              0 ****  ****    0 ROOT
