@<TRIPOS>MOLECULE
LHP
   74    77     1     0     0
SMALL
bcc


@<TRIPOS>ATOM
      1 O3          0.1030    0.1000   -0.1240 os        1 LHP     -0.440900
      2 C1          3.6700    0.1700    1.0270 c3        1 LHP     -0.070400
      3 C2          2.5150    0.2500    0.0560 c3        1 LHP     -0.099400
      4 C3          1.1980    0.1920    0.8150 c3        1 LHP      0.151100
      5 C4          1.1120   -1.0700    1.6630 c3        1 LHP     -0.078400
      6 C5          2.2900   -1.1660    2.6220 c3        1 LHP     -0.048700
      7 C6          2.1660   -2.4310    3.4600 c3        1 LHP     -0.071400
      8 C7          2.4360   -3.6860    2.6610 c3        1 LHP     -0.074400
      9 C8          3.7890   -3.6240    1.9730 c3        1 LHP     -0.047700
     10 C9          3.8980   -2.3660    1.0940 c3        1 LHP     -0.046700
     11 C10         3.6570   -1.0850    1.9120 c3        1 LHP     -0.036000
     12 C11         5.2140   -2.3440    0.3240 c3        1 LHP     -0.072400
     13 C12         5.4930   -3.6210   -0.4540 c3        1 LHP     -0.065400
     14 C13         5.4130   -4.8440    0.4450 c3        1 LHP     -0.047000
     15 C14         4.0000   -4.8300    1.0820 c3        1 LHP     -0.067700
     16 C15         3.8450   -6.2250    1.6690 c3        1 LHP     -0.073400
     17 C16         4.6230   -7.1280    0.7100 c3        1 LHP     -0.080400
     18 C17         5.3940   -6.2190   -0.2710 c3        1 LHP     -0.047700
     19 C18         6.5250   -4.8190    1.4800 c3        1 LHP     -0.080100
     20 C19         4.7470   -0.8810    2.9620 c3        1 LHP     -0.087100
     21 C20         6.7360   -6.8230   -0.6690 c3        1 LHP     -0.061700
     22 C21         7.5000   -5.9130   -1.6110 c3        1 LHP     -0.086100
     23 C22         6.5230   -8.1840   -1.3310 c3        1 LHP     -0.068400
     24 C23         7.7820   -9.0170   -1.3830 c3        1 LHP     -0.195400
     25 C24         7.4660  -10.4800   -1.7470 c         1 LHP      0.907600
     26 C26        -0.3790    1.2560   -0.6610 c         1 LHP      0.633100
     27 C27        -1.4790    1.0080   -1.6500 c3        1 LHP     -0.130400
     28 C28        -2.5810    2.0260   -1.5090 c3        1 LHP     -0.092100
     29 OT1         6.4900  -11.0480   -1.1770 o         1 LHP     -0.852300
     30 OT2         8.2180  -11.0500   -2.5900 o         1 LHP     -0.852300
     31 O25         0.1100    2.3340   -0.3160 o         1 LHP     -0.552000
     32 H3          2.5650    1.2120   -0.5170 hc        1 LHP      0.055700
     33 H4          2.5630   -0.5910   -0.6840 hc        1 LHP      0.055700
     34 H5          1.0670    1.1130    1.4460 h1        1 LHP      0.066700
     35 H6          0.1550   -1.0560    2.2470 hc        1 LHP      0.054700
     36 H7          1.0780   -1.9640    0.9880 hc        1 LHP      0.054700
     37 H8          2.2270   -0.2820    3.3210 hc        1 LHP      0.038700
     38 H9          1.1340   -2.4830    3.8980 hc        1 LHP      0.036200
     39 H10         2.8890   -2.3710    4.3160 hc        1 LHP      0.036200
     40 H11         2.4130   -4.5780    3.3410 hc        1 LHP      0.042200
     41 H12         1.6300   -3.8340    1.8950 hc        1 LHP      0.042200
     42 H13         4.5850   -3.6010    2.7660 hc        1 LHP      0.053700
     43 H14         3.0700   -2.4270    0.3280 hc        1 LHP      0.047700
     44 H15         6.0610   -2.1530    1.0340 hc        1 LHP      0.034200
     45 H16         5.1940   -1.4940   -0.4090 hc        1 LHP      0.034200
     46 H17         6.5100   -3.5470   -0.9180 hc        1 LHP      0.042200
     47 H18         4.7500   -3.7240   -1.2880 hc        1 LHP      0.042200
     48 H19         3.2540   -4.7490    0.2360 hc        1 LHP      0.042700
     49 H20         2.7690   -6.5210    1.7310 hc        1 LHP      0.032700
     50 H21         4.2700   -6.2750    2.7020 hc        1 LHP      0.032700
     51 H22         3.9300   -7.7980    0.1450 hc        1 LHP      0.056200
     52 H23         5.3340   -7.7790    1.2780 hc        1 LHP      0.056200
     53 H24         4.7830   -6.1030   -1.2090 hc        1 LHP      0.041700
     54 H25         6.4560   -5.7170    2.1410 hc        1 LHP      0.033033
     55 H26         7.5200   -4.8270    0.9730 hc        1 LHP      0.033033
     56 H27         6.4740   -3.9050    2.1190 hc        1 LHP      0.033033
     57 H28         4.4860   -0.0230    3.6280 hc        1 LHP      0.034367
     58 H29         5.7230   -0.6550    2.4680 hc        1 LHP      0.034367
     59 H30         4.8750   -1.7900    3.5970 hc        1 LHP      0.034367
     60 H31         7.3510   -6.9780    0.2610 hc        1 LHP      0.043700
     61 H32         6.8300   -5.5250   -2.4150 hc        1 LHP      0.025700
     62 H33         8.3360   -6.4790   -2.0920 hc        1 LHP      0.025700
     63 H34         7.9410   -5.0440   -1.0660 hc        1 LHP      0.025700
     64 H35         6.1310   -8.0300   -2.3700 hc        1 LHP      0.047700
     65 H36         5.7500   -8.7750   -0.7690 hc        1 LHP      0.047700
     66 H37         8.5050   -8.6040   -2.1280 hc        1 LHP      0.019700
     67 H38         8.2840   -9.0190   -0.3820 hc        1 LHP      0.019700
     68 H39        -1.0210    1.0670   -2.6740 hc        1 LHP      0.076700
     69 H40        -1.8800   -0.0310   -1.5130 hc        1 LHP      0.076700
     70 H41        -2.1640    3.0620   -1.5560 hc        1 LHP      0.045700
     71 H42        -3.3240    1.8970   -2.3320 hc        1 LHP      0.045700
     72 H43        -3.1080    1.9050   -0.5320 hc        1 LHP      0.045700
     73 H1          4.6360    0.2200    0.4610 hc        1 LHP      0.042700
     74 H2          3.6370    1.0700    1.6990 hc        1 LHP      0.042700
@<TRIPOS>BOND
     1    1    4 1   
     2    1   26 1   
     3    2    3 1   
     4    2   11 1   
     5    2   73 1   
     6    2   74 1   
     7    3    4 1   
     8    3   32 1   
     9    3   33 1   
    10    4    5 1   
    11    4   34 1   
    12    5    6 1   
    13    5   35 1   
    14    5   36 1   
    15    6    7 1   
    16    6   11 1   
    17    6   37 1   
    18    7    8 1   
    19    7   38 1   
    20    7   39 1   
    21    8    9 1   
    22    8   40 1   
    23    8   41 1   
    24    9   10 1   
    25    9   15 1   
    26    9   42 1   
    27   10   11 1   
    28   10   12 1   
    29   10   43 1   
    30   11   20 1   
    31   12   13 1   
    32   12   44 1   
    33   12   45 1   
    34   13   14 1   
    35   13   46 1   
    36   13   47 1   
    37   14   15 1   
    38   14   18 1   
    39   14   19 1   
    40   15   16 1   
    41   15   48 1   
    42   16   17 1   
    43   16   49 1   
    44   16   50 1   
    45   17   18 1   
    46   17   51 1   
    47   17   52 1   
    48   18   21 1   
    49   18   53 1   
    50   19   54 1   
    51   19   55 1   
    52   19   56 1   
    53   20   57 1   
    54   20   58 1   
    55   20   59 1   
    56   21   22 1   
    57   21   23 1   
    58   21   60 1   
    59   22   61 1   
    60   22   62 1   
    61   22   63 1   
    62   23   24 1   
    63   23   64 1   
    64   23   65 1   
    65   24   25 1   
    66   24   66 1   
    67   24   67 1   
    68   25   29 1   
    69   25   30 1   
    70   26   27 1   
    71   26   31 2   
    72   27   28 1   
    73   27   68 1   
    74   27   69 1   
    75   28   70 1   
    76   28   71 1   
    77   28   72 1   
@<TRIPOS>SUBSTRUCTURE
     1 LHP         1 TEMP              0 ****  ****    0 ROOT
