@<TRIPOS>MOLECULE
molecule
   74    77     1     0     0
SMALL
bcc


@<TRIPOS>ATOM
      1 O3           0.0000     0.0000     0.0000 os         1 LHP      -0.426900
      2 C1           3.6690     0.0000     0.9050 c3         1 LHP      -0.068400
      3 C2           2.4350     0.0000     0.0000 c3         1 LHP      -0.100400
      4 C3           1.1700     0.0010     0.8600 c3         1 LHP       0.149100
      5 C4           1.1540    -1.2470     1.7450 c3         1 LHP      -0.078400
      6 C5           2.3860    -1.2440     2.6520 c3         1 LHP      -0.052700
      7 C6           2.3680    -2.4870     3.5440 c3         1 LHP      -0.076400
      8 C7           2.3990    -3.7440     2.6710 c3         1 LHP      -0.078400
      9 C8           3.6720    -3.7420     1.8230 c3         1 LHP      -0.065700
     10 C9           3.6730    -2.5000     0.9190 c3         1 LHP      -0.055700
     11 C10          3.6520    -1.2450     1.7930 c3         1 LHP      -0.058000
     12 C11          4.9010    -2.4670     0.0140 c3         1 LHP      -0.081400
     13 C12          5.0250    -3.7610    -0.8090 c3         1 LHP      -0.065400
     14 C13          5.0830    -4.9160     0.1720 c3         1 LHP      -0.063000
     15 C14          3.7030    -4.9590     0.9170 c3         1 LHP      -0.070700
     16 C15          3.7770    -6.3170     1.6230 c3         1 LHP      -0.079400
     17 C16          4.3770    -7.2440     0.5300 c3         1 LHP      -0.077400
     18 C17          5.1970    -6.3140    -0.4290 c3         1 LHP      -0.051700
     19 C18          6.2150    -4.6870     1.1740 c3         1 LHP      -0.095100
     20 C19          4.8840    -1.2400     2.7020 c3         1 LHP      -0.086100
     21 C20          6.6640    -6.7410    -0.5010 c3         1 LHP      -0.080700
     22 C21          7.4090    -5.8430    -1.4910 c3         1 LHP      -0.091100
     23 C22          6.7490    -8.1950    -0.9670 c3         1 LHP      -0.062400
     24 C23          8.2060    -8.6610    -0.9210 c3         1 LHP      -0.184400
     25 C24          8.2900   -10.0930    -1.3800 c          1 LHP       0.889600
     26 C26         -0.4900     1.1950    -0.3620 c          1 LHP       0.630100
     27 C27         -1.7030     1.2730    -1.2540 c3         1 LHP      -0.130400
     28 C28         -2.0520     2.7400    -1.5140 c3         1 LHP      -0.082100
     29 OT1          7.2870   -10.6820    -1.7110 o          1 LHP      -0.857300
     30 OT2          9.4780   -10.7170    -1.4210 o          1 LHP      -0.857300
     31 O25          0.0400     2.2090     0.0260 o          1 LHP      -0.558000
     32 H3           2.4460    -0.8860    -0.6230 hc         1 LHP       0.054700
     33 H4           2.4460     0.8860    -0.6230 hc         1 LHP       0.054700
     34 H5           1.1630     0.8850     1.4870 h1         1 LHP       0.067700
     35 H6           1.1700    -2.1320     1.1200 hc         1 LHP       0.056200
     36 H7           0.2590    -1.2450     2.3540 hc         1 LHP       0.056200
     37 H8           2.3730    -0.3560     3.2720 hc         1 LHP       0.045700
     38 H9           1.4650    -2.4870     4.1420 hc         1 LHP       0.040200
     39 H10          3.2370    -2.4770     4.1910 hc         1 LHP       0.040200
     40 H11          1.5320    -3.7510     2.0200 hc         1 LHP       0.043200
     41 H12          2.3890    -4.6220     3.3040 hc         1 LHP       0.043200
     42 H13          4.5450    -3.7350     2.4640 hc         1 LHP       0.071700
     43 H14          2.7830    -2.5140     0.3020 hc         1 LHP       0.054700
     44 H15          4.8180    -1.6250    -0.6620 hc         1 LHP       0.039700
     45 H16          5.7870    -2.3510     0.6260 hc         1 LHP       0.039700
     46 H17          5.9330    -3.7350    -1.3990 hc         1 LHP       0.045200
     47 H18          4.1620    -3.8700    -1.4540 hc         1 LHP       0.045200
     48 H19          2.8840    -4.9360     0.2080 hc         1 LHP       0.054700
     49 H20          4.4340    -6.2650     2.4820 hc         1 LHP       0.037700
     50 H21          2.7870    -6.6540     1.9070 hc         1 LHP       0.037700
     51 H22          3.5820    -7.7340    -0.0180 hc         1 LHP       0.052700
     52 H23          5.0320    -7.9780     0.9850 hc         1 LHP       0.052700
     53 H24          4.7550    -6.3250    -1.4170 hc         1 LHP       0.050700
     54 H25          6.5710    -5.6430     1.5420 hc         1 LHP       0.039367
     55 H26          5.8490    -4.0960     2.0050 hc         1 LHP       0.039367
     56 H27          7.0280    -4.1620     0.6880 hc         1 LHP       0.039367
     57 H28          4.7770    -0.4640     3.4500 hc         1 LHP       0.037367
     58 H29          4.9760    -2.2020     3.1910 hc         1 LHP       0.037367
     59 H30          5.7700    -1.0500     2.1080 hc         1 LHP       0.037367
     60 H31          7.1160    -6.6490     0.4790 hc         1 LHP       0.049700
     61 H32          7.9970    -5.1140    -0.9460 hc         1 LHP       0.029367
     62 H33          6.6930    -5.3300    -2.1230 hc         1 LHP       0.029367
     63 H34          8.0640    -6.4490    -2.1060 hc         1 LHP       0.029367
     64 H35          6.3780    -8.2720    -1.9820 hc         1 LHP       0.047700
     65 H36          6.1490    -8.8190    -0.3160 hc         1 LHP       0.047700
     66 H37          8.5780    -8.5850     0.0940 hc         1 LHP       0.027700
     67 H38          8.8060    -8.0380    -1.5730 hc         1 LHP       0.027700
     68 H39         -1.4910     0.7800    -2.1950 hc         1 LHP       0.069200
     69 H40         -2.5390     0.7830    -0.7700 hc         1 LHP       0.069200
     70 H41         -2.2390     3.2390    -0.5700 hc         1 LHP       0.044033
     71 H42         -1.2260     3.2230    -2.0210 hc         1 LHP       0.044033
     72 H43         -2.9390     2.7950    -2.1340 hc         1 LHP       0.044033
     73 H1           3.6570     0.8860     1.5290 hc         1 LHP       0.047200
     74 H2           4.5630    -0.0060     0.2940 hc         1 LHP       0.047200
@<TRIPOS>BOND
     1    20    11 1
     2     2    11 1
     3     2     3 1
     4    11     6 1
     5    11    10 1
     6     6     7 1
     7     6     5 1
     8     3     4 1
     9     4     5 1
    10     4     1 1
    11     7     8 1
    12    12    10 1
    13    12    13 1
    14    10     9 1
    15    31    26 2
    16     1    26 1
    17     9     8 1
    18     9    15 1
    19    26    27 1
    20    19    14 1
    21    13    14 1
    22    27    28 1
    23    14    15 1
    24    14    18 1
    25    15    16 1
    26    16    17 1
    27    22    21 1
    28    18    21 1
    29    18    17 1
    30    21    23 1
    31    23    24 1
    32    24    25 1
    33    25    29 1
    34    25    30 1
    35     2    73 1
    36     2    74 1
    37     3    32 1
    38     3    33 1
    39     4    34 1
    40     5    35 1
    41     5    36 1
    42     6    37 1
    43     7    38 1
    44     7    39 1
    45     8    40 1
    46     8    41 1
    47     9    42 1
    48    10    43 1
    49    12    44 1
    50    12    45 1
    51    13    46 1
    52    13    47 1
    53    15    48 1
    54    16    49 1
    55    16    50 1
    56    17    51 1
    57    17    52 1
    58    18    53 1
    59    19    54 1
    60    19    55 1
    61    19    56 1
    62    20    57 1
    63    20    58 1
    64    20    59 1
    65    21    60 1
    66    22    61 1
    67    22    62 1
    68    22    63 1
    69    23    64 1
    70    23    65 1
    71    24    66 1
    72    24    67 1
    73    27    68 1
    74    27    69 1
    75    28    70 1
    76    28    71 1
    77    28    72 1
@<TRIPOS>SUBSTRUCTURE
     1 LHP         1 TEMP              0 ****  ****    0 ROOT
