@<TRIPOS>MOLECULE
molecule
   27    27     1     0     0
SMALL
bcc


@<TRIPOS>ATOM
      1 N            0.0000     0.0000     0.0000 ns         1 LHY      -0.556900
      2 CA           1.4640     0.0000     0.0000 c3         1 LHY       0.035700
      3 C            1.9660     0.0000     1.4210 c          1 LHY       0.884600
      4 O            3.0210    -0.5230     1.6890 o          1 LHY      -0.838300
      5 CB           1.9750     1.2470    -0.7220 c3         1 LHY      -0.044100
      6 CG           1.4740     1.2460    -2.1430 ca         1 LHY      -0.053300
      7 CD1          0.2670     1.8460    -2.4490 ca         1 LHY      -0.127000
      8 CD2          2.2220     0.6520    -3.1410 ca         1 LHY      -0.127000
      9 CE1         -0.1940     1.8440    -3.7520 ca         1 LHY      -0.133000
     10 CE2          1.7590     0.6480    -4.4430 ca         1 LHY      -0.133000
     11 CZ           0.5530     1.2460    -4.7490 ca         1 LHY      -0.151000
     12 OXT          1.2410     0.5820     2.3880 o          1 LHY      -0.838300
     13 C1          -0.6750    -1.1660     0.0010 c          1 LHY       0.802100
     14 O1          -0.0670    -2.2200     0.0010 o          1 LHY      -0.638100
     15 N2          -2.0220    -1.1660     0.0010 ns         1 LHY      -0.500400
     16 O2          -2.7310    -2.3910     0.0020 oh         1 LHY      -0.358100
     17 H           -0.4990     0.8650     0.0610 hn         1 LHY       0.295500
     18 HA           1.8250    -0.8850    -0.5100 h1         1 LHY       0.079700
     19 HB1          1.6150     2.1330    -0.2120 hc         1 LHY       0.060700
     20 HB2          3.0590     1.2470    -0.7210 hc         1 LHY       0.060700
     21 HD1         -0.3190     2.3160    -1.6680 ha         1 LHY       0.129500
     22 HD2          3.1690     0.1830    -2.9010 ha         1 LHY       0.129500
     23 HE1         -1.1400     2.3140    -3.9920 ha         1 LHY       0.114000
     24 HE2          2.3460     0.1800    -5.2250 ha         1 LHY       0.114000
     25 HZ           0.1900     1.2440    -5.7700 ha         1 LHY       0.112000
     26 H2N         -2.5220    -0.2990     0.0090 hn         1 LHY       0.301500
     27 H2O         -3.6580    -2.2180    -0.0030 ho         1 LHY       0.379000
@<TRIPOS>BOND
     1     1     2 1
     2     1    13 1
     3     1    17 1
     4     2     3 1
     5     2     5 1
     6     2    18 1
     7     3     4 1
     8     3    12 1
     9     5     6 1
    10     5    19 1
    11     5    20 1
    12     6     7 ar
    13     6     8 ar
    14     7     9 ar
    15     7    21 1
    16     8    10 ar
    17     8    22 1
    18     9    11 ar
    19     9    23 1
    20    10    11 ar
    21    10    24 1
    22    11    25 1
    23    13    14 2
    24    13    15 1
    25    15    16 1
    26    15    26 1
    27    16    27 1
@<TRIPOS>SUBSTRUCTURE
     1 LHY         1 TEMP              0 ****  ****    0 ROOT
