@<TRIPOS>MOLECULE
LI0
   88    92     1     0     0
SMALL
bcc


@<TRIPOS>ATOM
      1 C1           0.0000     0.0000     0.0000 c3         1 LI0      -0.049900
      2 C2           1.5340     0.0000     0.0000 c3         1 LI0       0.164800
      3 C3           2.0470     0.0000     1.4460 c3         1 LI0      -0.049900
      4 C4           1.4590    -1.1500     2.2690 c3         1 LI0       0.179300
      5 N1          -0.0050    -1.1500     2.1820 nh         1 LI0      -0.399000
      6 C5          -0.5770    -1.1500     0.8290 c3         1 LI0       0.179300
      7 C6          -0.7560    -1.7520     3.1980 ca         1 LI0       0.087600
      8 C7          -0.2430    -2.8440     3.9260 ca         1 LI0      -0.161000
      9 C8          -2.7900    -1.8830     4.5360 ca         1 LI0      -0.021000
     10 C9          -2.0430    -1.2830     3.5230 ca         1 LI0      -0.161000
     11 O1          -4.2840    -3.5700     6.2990 o          1 LI0      -0.575100
     12 N2          -2.3050    -4.2430     7.3560 ns         1 LI0      -0.339300
     13 S14         -2.9910    -5.0480     8.7040 sy         1 LI0       0.961900
     14 C11         -3.3490    -6.6330     8.0100 ca         1 LI0      -0.207500
     15 C12         -4.5810    -6.8500     7.4180 ca         1 LI0       0.136000
     16 C13         -4.8630    -8.1010     6.8700 ca         1 LI0      -0.529200
     17 C14         -3.9070    -9.1170     6.9210 ca         1 LI0       0.190600
     18 C15         -2.6710    -8.8810     7.5210 ca         1 LI0      -0.204000
     19 C16         -2.3890    -7.6280     8.0690 ca         1 LI0       0.083000
     20 O2          -1.9670    -5.2530     9.7100 o          1 LI0      -0.535800
     21 O3          -4.2470    -4.4120     9.0510 o          1 LI0      -0.535800
     22 N3          -6.1330    -8.3160     6.2640 no         1 LI0       1.032200
     23 O24         -6.3850    -9.4400     5.7720 o          1 LI0      -0.452500
     24 O4          -6.9590    -7.3740     6.2420 o          1 LI0      -0.452500
     25 N4          -4.1680   -10.3930     6.3730 nu         1 LI0      -0.464600
     26 C17         -3.3820   -10.9600     5.3240 c3         1 LI0       0.172200
     27 C18         -2.8490    -9.8340     4.4130 c3         1 LI0       0.048700
     28 S1          -1.8460   -10.3920     2.9960 ss         1 LI0      -0.309000
     29 C19         -0.6900    -8.7500     1.1050 ca         1 LI0      -0.102500
     30 C20         -1.4720    -8.8280     2.2670 ca         1 LI0       0.055900
     31 C21         -1.9510    -7.6390     2.8400 ca         1 LI0      -0.102500
     32 C22         -1.6550    -6.4050     2.2650 ca         1 LI0      -0.087500
     33 C23         -0.8760    -6.3410     1.1100 ca         1 LI0      -0.103000
     34 C24         -0.3930    -7.5140     0.5300 ca         1 LI0      -0.087500
     35 C25         -4.2930   -11.8810     4.4960 c3         1 LI0      -0.026100
     36 C26         -2.2580   -11.8020     5.9440 c3         1 LI0      -0.026100
     37 C27         -0.9900    -3.4440     4.9390 ca         1 LI0      -0.021000
     38 C28         -2.2650    -2.9640     5.2440 ca         1 LI0      -0.212600
     39 O5           1.9840    -1.1840    -0.6610 os         1 LI0      -0.394600
     40 C29          3.4010    -1.2460    -0.6960 c3         1 LI0       0.211700
     41 C30          2.0730     1.2040    -0.7710 c3         1 LI0      -0.010100
     42 C31          0.7660     1.1760    -4.8470 ca         1 LI0      -0.102000
     43 C32          1.9580     0.5450    -4.4930 ca         1 LI0      -0.097000
     44 C33          2.3840     0.5530    -3.1650 ca         1 LI0      -0.100000
     45 C34          1.6150     1.1950    -2.2030 ca         1 LI0      -0.080300
     46 C35          0.4260     1.8270    -2.5460 ca         1 LI0      -0.100000
     47 C36          0.0010     1.8180    -3.8740 ca         1 LI0      -0.097000
     48 H11         -0.3500    -0.0940    -1.0210 hc         1 LI0       0.032450
     49 H12A        -0.3500     0.9390     0.4120 hc         1 LI0       0.032450
     50 H31A         3.1260    -0.0940     1.4350 hc         1 LI0       0.032450
     51 H32A         1.7750     0.9390     1.9130 hc         1 LI0       0.032450
     52 H41          1.7530    -1.0330     3.3050 h1         1 LI0       0.017450
     53 H42          1.8380    -2.0900     1.8880 h1         1 LI0       0.017450
     54 H51         -0.3440    -2.0900     0.3440 h1         1 LI0       0.017450
     55 H52         -1.6520    -1.0350     0.8970 h1         1 LI0       0.017450
     56 H7           0.7450    -3.2230     3.6960 ha         1 LI0       0.116500
     57 H8          -3.7790    -1.5090     4.7740 ha         1 LI0       0.112000
     58 H9          -2.4590    -0.4440     2.9780 ha         1 LI0       0.116500
     59 HN2         -1.3060    -4.2240     7.2940 hn         1 LI0       0.225500
     60 H12         -5.3190    -6.0580     7.3820 ha         1 LI0       0.169000
     61 H15         -1.9280    -9.6690     7.5610 ha         1 LI0       0.137000
     62 H16         -1.4300    -7.4380     8.5370 ha         1 LI0       0.126000
     63 HN4         -4.9360   -10.9220     6.7370 hn         1 LI0       0.330800
     64 H181        -3.6960    -9.2770     4.0320 h1         1 LI0       0.049700
     65 H182        -2.2450    -9.1670     5.0160 h1         1 LI0       0.049700
     66 H21         -2.5570    -7.6820     3.7370 ha         1 LI0       0.114000
     67 H22         -2.0300    -5.4940     2.7160 ha         1 LI0       0.107500
     68 H23         -0.6460    -5.3810     0.6630 ha         1 LI0       0.105000
     69 H24          0.2120    -7.4660    -0.3680 ha         1 LI0       0.107500
     70 H251        -3.7230   -12.3220     3.6880 hc         1 LI0       0.021533
     71 H252        -5.1140   -11.3040     4.0870 hc         1 LI0       0.021533
     72 H253        -4.6850   -12.6660     5.1310 hc         1 LI0       0.021533
     73 H261        -2.5920   -12.2060     6.8930 hc         1 LI0       0.021533
     74 H262        -2.0040   -12.6150     5.2750 hc         1 LI0       0.021533
     75 H263        -1.3860   -11.1790     6.1030 hc         1 LI0       0.021533
     76 H27         -0.5820    -4.2830     5.4890 ha         1 LI0       0.112000
     77 H291         3.7240    -1.5640    -1.6800 h1         1 LI0      -0.002300
     78 H292         3.7490    -1.9560     0.0440 h1         1 LI0      -0.002300
     79 H293         3.8110    -0.2670    -0.4800 h1         1 LI0      -0.002300
     80 H301         3.1560     1.1840    -0.7460 hc         1 LI0       0.030700
     81 H302         1.7260     2.1130    -0.2950 hc         1 LI0       0.030700
     82 H31          0.4360     1.1690    -5.8790 ha         1 LI0       0.103000
     83 H32          2.5530     0.0470    -5.2490 ha         1 LI0       0.102500
     84 H33          3.3100     0.0640    -2.8860 ha         1 LI0       0.108500
     85 H35         -0.1660     2.3240    -1.7870 ha         1 LI0       0.108500
     86 H36         -0.9250     2.3080    -4.1500 ha         1 LI0       0.102500
     87 C10         -3.0440    -3.5890     6.3010 c          1 LI0       0.692700
     88 H19         -0.3120    -9.6580     0.6500 ha         1 LI0       0.114000
@<TRIPOS>BOND
     1     1     2 1   
     2     1     6 1   
     3     1    48 1   
     4     1    49 1   
     5     2     3 1   
     6     2    39 1   
     7     2    41 1   
     8     3     4 1   
     9     3    50 1   
    10     3    51 1   
    11     4     5 1   
    12     4    52 1   
    13     4    53 1   
    14     5     6 1   
    15     5     7 1   
    16     6    54 1   
    17     6    55 1   
    18     7     8 ar  
    19     7    10 ar  
    20     8    37 ar  
    21     8    56 1   
    22     9    10 ar  
    23     9    38 ar  
    24     9    57 1   
    25    10    58 1   
    26    11    87 2   
    27    12    13 1   
    28    12    59 1   
    29    12    87 1   
    30    13    14 1   
    31    13    20 2   
    32    13    21 2   
    33    14    15 ar  
    34    14    19 ar  
    35    15    16 ar  
    36    15    60 1   
    37    16    17 ar  
    38    16    22 1   
    39    17    18 ar  
    40    17    25 1   
    41    18    19 ar  
    42    18    61 1   
    43    19    62 1   
    44    22    23 1   
    45    22    24 1   
    46    25    26 1   
    47    25    63 1   
    48    26    27 1   
    49    26    35 1   
    50    26    36 1   
    51    27    28 1   
    52    27    64 1   
    53    27    65 1   
    54    28    30 1   
    55    29    30 ar  
    56    29    34 ar  
    57    29    88 1   
    58    30    31 ar  
    59    31    32 ar  
    60    31    66 1   
    61    32    33 ar  
    62    32    67 1   
    63    33    34 ar  
    64    33    68 1   
    65    34    69 1   
    66    35    70 1   
    67    35    71 1   
    68    35    72 1   
    69    36    73 1   
    70    36    74 1   
    71    36    75 1   
    72    37    38 ar  
    73    37    76 1   
    74    38    87 1   
    75    39    40 1   
    76    40    77 1   
    77    40    78 1   
    78    40    79 1   
    79    41    45 1   
    80    41    80 1   
    81    41    81 1   
    82    42    43 ar  
    83    42    47 ar  
    84    42    82 1   
    85    43    44 ar  
    86    43    83 1   
    87    44    45 ar  
    88    44    84 1   
    89    45    46 ar  
    90    46    47 ar  
    91    46    85 1   
    92    47    86 1   
@<TRIPOS>SUBSTRUCTURE
     1 LI0         1 TEMP              0 ****  ****    0 ROOT
