@<TRIPOS>MOLECULE
molecule
  131   130     1     0     0
SMALL
bcc


@<TRIPOS>ATOM
      1 C1           0.0000     0.0000     0.0000 c3         1 LI1       0.097400
      2 C2           1.5250     0.0000     0.0000 c3         1 LI1       0.142100
      3 C3           2.0820     0.0000     1.4180 c3         1 LI1       0.150400
      4 O1          -0.4810    -1.1600     0.6620 os         1 LI1      -0.404600
      5 O2           1.9840    -1.1840    -0.6550 os         1 LI1      -0.384600
      6 O3           3.5030    -0.0280     1.3560 oh         1 LI1      -0.596800
      7 C41          1.5240    -1.2410    -1.9950 c3         1 LI1       0.129400
      8 C42          2.0290    -2.5150    -2.6680 c3         1 LI1      -0.069400
      9 C43          3.5660    -2.6430    -2.7520 c3         1 LI1      -0.068700
     10 C44          4.1810    -1.5320    -3.6120 c3         1 LI1      -0.088100
     11 C45          3.9960    -4.0130    -3.3240 c3         1 LI1      -0.074400
     12 C46          3.4990    -5.2090    -2.5030 c3         1 LI1      -0.080400
     13 C47          4.0230    -6.5300    -3.0830 c3         1 LI1      -0.074400
     14 C48          3.5870    -7.7750    -2.2840 c3         1 LI1      -0.067700
     15 C49          4.0710    -7.7190    -0.8290 c3         1 LI1      -0.087100
     16 C50          4.1050    -9.0810    -2.9280 c3         1 LI1      -0.073400
     17 C51          3.7700    -9.2950    -4.4100 c3         1 LI1      -0.075400
     18 C52          2.2690    -9.3960    -4.6900 c3         1 LI1      -0.079400
     19 C53          1.9390    -9.6150    -6.1700 c3         1 LI1      -0.078400
     20 C55          0.4380    -9.6420    -6.4650 c3         1 LI1      -0.077400
     21 C56          0.1690    -9.8940    -7.9510 c3         1 LI1      -0.078400
     22 C57         -1.3330    -9.9580    -8.2410 c3         1 LI1      -0.075400
     23 C58         -1.6620   -10.1840    -9.7280 c3         1 LI1      -0.074700
     24 C59         -1.0920    -9.0860   -10.6270 c3         1 LI1      -0.088100
     25 C60         -3.1790   -10.2690    -9.9160 c3         1 LI1      -0.088100
     26 C11         -1.9020    -1.1750     0.7210 c3         1 LI1       0.130400
     27 C12         -2.3480    -2.4430     1.4420 c3         1 LI1      -0.069400
     28 C13         -1.9120    -3.7370     0.7330 c3         1 LI1      -0.070700
     29 C14         -2.4040    -4.9890     1.4630 c3         1 LI1      -0.084100
     30 C15         -2.3430    -3.7370    -0.7510 c3         1 LI1      -0.075400
     31 C16         -1.7790    -4.8850    -1.5970 c3         1 LI1      -0.076400
     32 C17         -2.2250    -4.7570    -3.0610 c3         1 LI1      -0.074400
     33 C18         -1.7520    -5.9190    -3.9570 c3         1 LI1      -0.068700
     34 C19         -0.2210    -5.9870    -4.0420 c3         1 LI1      -0.089100
     35 C20         -2.3230    -5.8070    -5.3880 c3         1 LI1      -0.073400
     36 C21         -3.8450    -5.6540    -5.5000 c3         1 LI1      -0.077400
     37 C22         -4.6730    -6.8350    -4.9780 c3         1 LI1      -0.071400
     38 C23         -4.4720    -8.1710    -5.7200 c3         1 LI1      -0.067700
     39 C24         -5.4130    -9.2300    -5.1360 c3         1 LI1      -0.087100
     40 C25         -4.6160    -8.0780    -7.2540 c3         1 LI1      -0.075400
     41 C26         -5.9990    -7.6500    -7.7580 c3         1 LI1      -0.078400
     42 C27         -6.0160    -7.5420    -9.2860 c3         1 LI1      -0.074400
     43 C28         -7.3880    -7.1400    -9.8580 c3         1 LI1      -0.073700
     44 C29         -8.4430    -8.1700    -9.4460 c3         1 LI1      -0.086600
     45 C30         -7.8260    -5.7450    -9.4080 c3         1 LI1      -0.086600
     46 H11         -0.3600     0.0070    -1.0220 h1         1 LI1       0.028200
     47 H12         -0.3600     0.8830     0.5140 h1         1 LI1       0.028200
     48 H2           1.8870     0.8720    -0.5320 h1         1 LI1       0.047700
     49 H31          1.7590     0.8960     1.9340 h1         1 LI1       0.039200
     50 H32          1.7240    -0.8740     1.9480 h1         1 LI1       0.039200
     51 HO3          3.8600     0.4370     2.0950 ho         1 LI1       0.397000
     52 H411         0.4400    -1.2360    -2.0030 h1         1 LI1       0.020700
     53 H412         1.8910    -0.3780    -2.5380 h1         1 LI1       0.020700
     54 H421         1.6290    -2.5500    -3.6750 hc         1 LI1       0.047200
     55 H422         1.6460    -3.3660    -2.1180 hc         1 LI1       0.047200
     56 H43          3.9670    -2.5540    -1.7500 hc         1 LI1       0.067700
     57 H441         3.4310    -1.1430    -4.2890 hc         1 LI1       0.032700
     58 H442         4.5380    -0.7350    -2.9710 hc         1 LI1       0.032700
     59 H443         5.0090    -1.9340    -4.1830 hc         1 LI1       0.032700
     60 H451         3.6100    -4.1020    -4.3320 hc         1 LI1       0.036700
     61 H452         5.0780    -4.0470    -3.3620 hc         1 LI1       0.036700
     62 H461         2.4160    -5.2220    -2.5130 hc         1 LI1       0.043200
     63 H462         3.8440    -5.1070    -1.4820 hc         1 LI1       0.043200
     64 H471         3.6630    -6.6280    -4.1000 hc         1 LI1       0.038700
     65 H472         5.1060    -6.4930    -3.1010 hc         1 LI1       0.038700
     66 H48          2.5040    -7.8080    -2.2780 hc         1 LI1       0.043700
     67 H491         5.0960    -7.3690    -0.8020 hc         1 LI1       0.034367
     68 H492         4.0160    -8.7090    -0.3920 hc         1 LI1       0.034367
     69 H493         3.4420    -7.0400    -0.2660 hc         1 LI1       0.034367
     70 H501         5.1830    -9.1010    -2.8230 hc         1 LI1       0.037700
     71 H502         3.6960    -9.9140    -2.3690 hc         1 LI1       0.037700
     72 H511         4.1730    -8.4660    -4.9790 hc         1 LI1       0.039200
     73 H512         4.2470   -10.2090    -4.7440 hc         1 LI1       0.039200
     74 H521         1.8650   -10.2230    -4.1180 hc         1 LI1       0.038700
     75 H522         1.7930    -8.4810    -4.3600 hc         1 LI1       0.038700
     76 H531         2.3710   -10.5580    -6.4850 hc         1 LI1       0.037200
     77 H532         2.3910    -8.8170    -6.7470 hc         1 LI1       0.037200
     78 H551         0.0030    -8.6910    -6.1820 hc         1 LI1       0.039700
     79 H552        -0.0240   -10.4300    -5.8820 hc         1 LI1       0.039700
     80 H561         0.6270   -10.8330    -8.2390 hc         1 LI1       0.040200
     81 H562         0.6090    -9.0920    -8.5310 hc         1 LI1       0.040200
     82 H571        -1.7630   -10.7680    -7.6640 hc         1 LI1       0.039200
     83 H572        -1.7870    -9.0270    -7.9230 hc         1 LI1       0.039200
     84 H58         -1.2290   -11.1300   -10.0310 hc         1 LI1       0.043700
     85 H591        -1.2380    -8.1220   -10.1560 hc         1 LI1       0.033700
     86 H592        -1.6010    -9.1020   -11.5830 hc         1 LI1       0.033700
     87 H593        -0.0330    -9.2570   -10.7780 hc         1 LI1       0.033700
     88 H601        -3.6230   -10.7610    -9.0590 hc         1 LI1       0.033700
     89 H602        -3.5880    -9.2700   -10.0110 hc         1 LI1       0.033700
     90 H603        -3.4010   -10.8360   -10.8130 hc         1 LI1       0.033700
     91 H111        -2.2530    -0.3050     1.2640 h1         1 LI1       0.024200
     92 H112        -2.3080    -1.1650    -0.2830 h1         1 LI1       0.024200
     93 H121        -3.4290    -2.4370     1.5170 hc         1 LI1       0.047700
     94 H122        -1.9310    -2.4380     2.4420 hc         1 LI1       0.047700
     95 H13         -0.8290    -3.7610     0.7510 hc         1 LI1       0.062700
     96 H141        -2.3000    -4.8480     2.5320 hc         1 LI1       0.033700
     97 H142        -3.4460    -5.1610     1.2210 hc         1 LI1       0.033700
     98 H143        -1.8150    -5.8430     1.1520 hc         1 LI1       0.033700
     99 H151        -3.4250    -3.7860    -0.7890 hc         1 LI1       0.034700
    100 H152        -2.0290    -2.8000    -1.1960 hc         1 LI1       0.034700
    101 H161        -2.1330    -5.8280    -1.1990 hc         1 LI1       0.042200
    102 H162        -0.6970    -4.8620    -1.5510 hc         1 LI1       0.042200
    103 H171        -1.8320    -3.8300    -3.4610 hc         1 LI1       0.037700
    104 H172        -3.3070    -4.7160    -3.0900 hc         1 LI1       0.037700
    105 H18         -2.1070    -6.8460    -3.5230 hc         1 LI1       0.044700
    106 H191         0.1800    -4.9850    -4.1390 hc         1 LI1       0.035033
    107 H192         0.0670    -6.5760    -4.9050 hc         1 LI1       0.035033
    108 H193         0.1710    -6.4470    -3.1430 hc         1 LI1       0.035033
    109 H201        -1.8640    -4.9500    -5.8670 hc         1 LI1       0.037700
    110 H202        -2.0340    -6.6950    -5.9360 hc         1 LI1       0.037700
    111 H211        -4.1370    -4.7680    -4.9490 hc         1 LI1       0.038700
    112 H212        -4.0940    -5.5030    -6.5430 hc         1 LI1       0.038700
    113 H221        -5.7210    -6.5680    -5.0420 hc         1 LI1       0.038700
    114 H222        -4.4240    -6.9870    -3.9350 hc         1 LI1       0.038700
    115 H23         -3.4590    -8.4980    -5.5170 hc         1 LI1       0.042700
    116 H241        -6.4100    -8.8160    -5.0440 hc         1 LI1       0.033367
    117 H242        -5.4390   -10.0920    -5.7910 hc         1 LI1       0.033367
    118 H243        -5.0560    -9.5310    -4.1580 hc         1 LI1       0.033367
    119 H251        -4.3860    -9.0490    -7.6760 hc         1 LI1       0.039200
    120 H252        -3.8870    -7.3660    -7.6200 hc         1 LI1       0.039200
    121 H261        -6.2520    -6.6880    -7.3290 hc         1 LI1       0.041700
    122 H262        -6.7340    -8.3830    -7.4450 hc         1 LI1       0.041700
    123 H271        -5.2850    -6.8020    -9.5890 hc         1 LI1       0.037700
    124 H272        -5.7340    -8.5000    -9.7050 hc         1 LI1       0.037700
    125 H28         -7.3180    -7.1400   -10.9390 hc         1 LI1       0.044700
    126 H291        -8.0320    -9.1670    -9.5440 hc         1 LI1       0.033200
    127 H292        -9.3120    -8.0730   -10.0860 hc         1 LI1       0.033200
    128 H293        -8.7330    -7.9980    -8.4160 hc         1 LI1       0.033200
    129 H301        -6.9880    -5.0620    -9.4830 hc         1 LI1       0.033200
    130 H302        -8.1650    -5.7870    -8.3800 hc         1 LI1       0.033200
    131 H303        -8.6330    -5.3980   -10.0410 hc         1 LI1       0.033200
@<TRIPOS>BOND
     1     1     2 1
     2     1     4 1
     3     1    46 1
     4     1    47 1
     5     2     3 1
     6     2     5 1
     7     2    48 1
     8     3     6 1
     9     3    49 1
    10     3    50 1
    11     4    26 1
    12     5     7 1
    13     6    51 1
    14     7     8 1
    15     7    52 1
    16     7    53 1
    17     8     9 1
    18     8    54 1
    19     8    55 1
    20     9    10 1
    21     9    11 1
    22     9    56 1
    23    10    57 1
    24    10    58 1
    25    10    59 1
    26    11    12 1
    27    11    60 1
    28    11    61 1
    29    12    13 1
    30    12    62 1
    31    12    63 1
    32    13    14 1
    33    13    64 1
    34    13    65 1
    35    14    15 1
    36    14    16 1
    37    14    66 1
    38    15    67 1
    39    15    68 1
    40    15    69 1
    41    16    17 1
    42    16    70 1
    43    16    71 1
    44    17    18 1
    45    17    72 1
    46    17    73 1
    47    18    19 1
    48    18    74 1
    49    18    75 1
    50    19    20 1
    51    19    76 1
    52    19    77 1
    53    20    21 1
    54    20    78 1
    55    20    79 1
    56    21    22 1
    57    21    80 1
    58    21    81 1
    59    22    23 1
    60    22    82 1
    61    22    83 1
    62    23    24 1
    63    23    25 1
    64    23    84 1
    65    24    85 1
    66    24    86 1
    67    24    87 1
    68    25    88 1
    69    25    89 1
    70    25    90 1
    71    26    27 1
    72    26    91 1
    73    26    92 1
    74    27    28 1
    75    27    93 1
    76    27    94 1
    77    28    29 1
    78    28    30 1
    79    28    95 1
    80    29    96 1
    81    29    97 1
    82    29    98 1
    83    30    31 1
    84    30    99 1
    85    30   100 1
    86    31    32 1
    87    31   101 1
    88    31   102 1
    89    32    33 1
    90    32   103 1
    91    32   104 1
    92    33    34 1
    93    33    35 1
    94    33   105 1
    95    34   106 1
    96    34   107 1
    97    34   108 1
    98    35    36 1
    99    35   109 1
   100    35   110 1
   101    36    37 1
   102    36   111 1
   103    36   112 1
   104    37    38 1
   105    37   113 1
   106    37   114 1
   107    38    39 1
   108    38    40 1
   109    38   115 1
   110    39   116 1
   111    39   117 1
   112    39   118 1
   113    40    41 1
   114    40   119 1
   115    40   120 1
   116    41    42 1
   117    41   121 1
   118    41   122 1
   119    42    43 1
   120    42   123 1
   121    42   124 1
   122    43    44 1
   123    43    45 1
   124    43   125 1
   125    44   126 1
   126    44   127 1
   127    44   128 1
   128    45   129 1
   129    45   130 1
   130    45   131 1
@<TRIPOS>SUBSTRUCTURE
     1 LI1         1 TEMP              0 ****  ****    0 ROOT
