@<TRIPOS>MOLECULE
LI1
  131   130     1     0     0
SMALL
bcc


@<TRIPOS>ATOM
      1 C1          0.5430    0.0480    0.1260 c3        1 LI1      0.109400
      2 C2          1.9700   -0.3400    0.5150 c3        1 LI1      0.100100
      3 C3          2.0250   -1.0070    1.8950 c3        1 LI1      0.138400
      4 O1         -0.3310   -1.0050    0.5170 os        1 LI1     -0.416600
      5 O2          2.5070   -1.3030   -0.3930 os        1 LI1     -0.423600
      6 O3          3.3580   -1.2950    2.2590 oh        1 LI1     -0.604800
      7 C41         3.1220   -0.7200   -1.5420 c3        1 LI1      0.128400
      8 C42         3.6390   -1.8610   -2.4000 c3        1 LI1     -0.077400
      9 C43         4.8010   -2.6020   -1.7560 c3        1 LI1     -0.064700
     10 C44         6.0830   -1.7980   -1.8620 c3        1 LI1     -0.092100
     11 C45         5.0030   -3.9670   -2.3990 c3        1 LI1     -0.075400
     12 C46         3.9420   -4.9700   -1.9980 c3        1 LI1     -0.079400
     13 C47         4.3140   -6.3620   -2.4640 c3        1 LI1     -0.076400
     14 C48         3.1810   -7.3640   -2.2880 c3        1 LI1     -0.065700
     15 C49         2.9130   -7.6300   -0.8210 c3        1 LI1     -0.091100
     16 C50         3.5160   -8.6720   -2.9980 c3        1 LI1     -0.076400
     17 C51         3.2710   -8.6210   -4.4920 c3        1 LI1     -0.078400
     18 C52         1.8250   -8.8960   -4.8470 c3        1 LI1     -0.081400
     19 C53         1.5970   -8.7860   -6.3400 c3        1 LI1     -0.079400
     20 C55         0.1970   -9.2200   -6.7180 c3        1 LI1     -0.081400
     21 C56        -0.0460   -9.0600   -8.2040 c3        1 LI1     -0.079400
     22 C57        -1.4510   -9.4860   -8.5700 c3        1 LI1     -0.080400
     23 C58        -1.7660   -9.2700  -10.0430 c3        1 LI1     -0.066700
     24 C59        -1.9670   -7.8020  -10.3570 c3        1 LI1     -0.092100
     25 C60        -3.0040  -10.0550  -10.4280 c3        1 LI1     -0.092100
     26 C11        -1.6410   -0.8510   -0.0290 c3        1 LI1      0.129400
     27 C12        -2.4790   -2.0090    0.4850 c3        1 LI1     -0.076400
     28 C13        -2.0870   -3.3420   -0.1380 c3        1 LI1     -0.068700
     29 C14        -2.5450   -4.4780    0.7550 c3        1 LI1     -0.089100
     30 C15        -2.6740   -3.4820   -1.5360 c3        1 LI1     -0.075400
     31 C16        -1.9680   -4.5460   -2.3500 c3        1 LI1     -0.079400
     32 C17        -2.5220   -4.6050   -3.7590 c3        1 LI1     -0.075400
     33 C18        -2.0080   -5.8050   -4.5400 c3        1 LI1     -0.064700
     34 C19        -0.4940   -5.7870   -4.6380 c3        1 LI1     -0.096100
     35 C20        -2.6020   -5.8510   -5.9410 c3        1 LI1     -0.075400
     36 C21        -4.1120   -5.9110   -6.0020 c3        1 LI1     -0.076400
     37 C22        -4.7400   -7.0710   -5.2600 c3        1 LI1     -0.074400
     38 C23        -4.3480   -8.4420   -5.7860 c3        1 LI1     -0.064700
     39 C24        -4.8950   -9.5180   -4.8680 c3        1 LI1     -0.090100
     40 C25        -4.7670   -8.6810   -7.2280 c3        1 LI1     -0.076400
     41 C26        -6.2520   -8.5420   -7.4860 c3        1 LI1     -0.079400
     42 C27        -6.5830   -8.9310   -8.9110 c3        1 LI1     -0.074400
     43 C28        -8.0510   -8.7680   -9.2760 c3        1 LI1     -0.065700
     44 C29        -8.9470   -9.6210   -8.4030 c3        1 LI1     -0.089100
     45 C30        -8.4870   -7.3190   -9.2330 c3        1 LI1     -0.089100
     46 H11         0.2450    0.9890    0.6610 h1        1 LI1      0.032700
     47 H12         0.4800    0.2140   -0.9830 h1        1 LI1      0.032700
     48 H2          2.6040    0.5900    0.5140 h1        1 LI1      0.051700
     49 H31         1.4050   -1.9420    1.8890 h1        1 LI1      0.063700
     50 H32         1.6470   -0.2970    2.6750 h1        1 LI1      0.063700
     51 HO3         3.7120   -1.8840    1.5790 ho        1 LI1      0.411000
     52 H411        3.9550   -0.0410   -1.2180 h1        1 LI1      0.026700
     53 H412        2.3610   -0.1200   -2.1100 h1        1 LI1      0.026700
     54 H421        2.7960   -2.5790   -2.5820 hc        1 LI1      0.053200
     55 H422        3.9550   -1.4400   -3.3900 hc        1 LI1      0.053200
     56 H43         4.5570   -2.7480   -0.6650 hc        1 LI1      0.059700
     57 H441        6.9130   -2.3210   -1.3280 hc        1 LI1      0.033367
     58 H442        5.9530   -0.7880   -1.4050 hc        1 LI1      0.033367
     59 H443        6.3770   -1.6680   -2.9310 hc        1 LI1      0.033367
     60 H451        6.0100   -4.3630   -2.0970 hc        1 LI1      0.039200
     61 H452        5.0130   -3.8550   -3.5150 hc        1 LI1      0.039200
     62 H461        2.9520   -4.6780   -2.4380 hc        1 LI1      0.043200
     63 H462        3.8210   -4.9640   -0.8820 hc        1 LI1      0.043200
     64 H471        5.2150   -6.7180   -1.8970 hc        1 LI1      0.039200
     65 H472        4.6010   -6.3220   -3.5490 hc        1 LI1      0.039200
     66 H48         2.2470   -6.9340   -2.7490 hc        1 LI1      0.048700
     67 H491        2.6420   -6.6830   -0.2950 hc        1 LI1      0.033700
     68 H492        3.8170   -8.0630   -0.3290 hc        1 LI1      0.033700
     69 H493        2.0680   -8.3510   -0.7040 hc        1 LI1      0.033700
     70 H501        4.5940   -8.9210   -2.8100 hc        1 LI1      0.040200
     71 H502        2.9040   -9.5010   -2.5540 hc        1 LI1      0.040200
     72 H511        3.9210   -9.3880   -4.9940 hc        1 LI1      0.039200
     73 H512        3.5710   -7.6200   -4.8990 hc        1 LI1      0.039200
     74 H521        1.5420   -9.9240   -4.4970 hc        1 LI1      0.041200
     75 H522        1.1580   -8.1690   -4.3110 hc        1 LI1      0.041200
     76 H531        2.3450   -9.4210   -6.8840 hc        1 LI1      0.039200
     77 H532        1.7630   -7.7250   -6.6650 hc        1 LI1      0.039200
     78 H551        0.0430  -10.2920   -6.4240 hc        1 LI1      0.040200
     79 H552       -0.5550   -8.6100   -6.1490 hc        1 LI1      0.040200
     80 H561        0.6980   -9.6750   -8.7770 hc        1 LI1      0.040200
     81 H562        0.1160   -7.9890   -8.4950 hc        1 LI1      0.040200
     82 H571       -2.1910   -8.9180   -7.9440 hc        1 LI1      0.042200
     83 H572       -1.5780  -10.5740   -8.3240 hc        1 LI1      0.042200
     84 H58        -0.8980   -9.6500  -10.6520 hc        1 LI1      0.045700
     85 H591       -2.2110   -7.6690  -11.4390 hc        1 LI1      0.033533
     86 H592       -1.0420   -7.2200  -10.1300 hc        1 LI1      0.033533
     87 H593       -2.8070   -7.3840   -9.7510 hc        1 LI1      0.033533
     88 H601       -3.8820   -9.7230   -9.8180 hc        1 LI1      0.033533
     89 H602       -2.8450  -11.1460  -10.2550 hc        1 LI1      0.033533
     90 H603       -3.2430   -9.8980  -11.5070 hc        1 LI1      0.033533
     91 H111       -2.0730    0.1280    0.3120 h1        1 LI1      0.026200
     92 H112       -1.5810   -0.8520   -1.1500 h1        1 LI1      0.026200
     93 H121       -3.5560   -1.7870    0.2670 hc        1 LI1      0.050700
     94 H122       -2.3560   -2.0710    1.5980 hc        1 LI1      0.050700
     95 H13        -0.9620   -3.3730   -0.2110 hc        1 LI1      0.069700
     96 H141       -2.0540   -4.4060    1.7560 hc        1 LI1      0.033367
     97 H142       -3.6510   -4.4430    0.9000 hc        1 LI1      0.033367
     98 H143       -2.2780   -5.4620    0.3020 hc        1 LI1      0.033367
     99 H151       -2.5920   -2.5000   -2.0740 hc        1 LI1      0.036700
    100 H152       -3.7660   -3.7260   -1.4590 hc        1 LI1      0.036700
    101 H161       -2.0890   -5.5460   -1.8560 hc        1 LI1      0.042700
    102 H162       -0.8690   -4.3240   -2.3840 hc        1 LI1      0.042700
    103 H171       -3.6420   -4.6590   -3.7060 hc        1 LI1      0.039200
    104 H172       -2.2570   -3.6620   -4.3060 hc        1 LI1      0.039200
    105 H18        -2.3150   -6.7420   -3.9930 hc        1 LI1      0.048700
    106 H191       -0.1370   -6.5920   -5.3270 hc        1 LI1      0.034700
    107 H192       -0.1380   -4.8040   -5.0300 hc        1 LI1      0.034700
    108 H193       -0.0340   -5.9580   -3.6350 hc        1 LI1      0.034700
    109 H201       -2.2630   -4.9390   -6.5040 hc        1 LI1      0.038700
    110 H202       -2.1790   -6.7450   -6.4760 hc        1 LI1      0.038700
    111 H211       -4.4180   -5.9590   -7.0820 hc        1 LI1      0.038200
    112 H212       -4.5370   -4.9570   -5.5880 hc        1 LI1      0.038200
    113 H221       -4.4560   -7.0100   -4.1750 hc        1 LI1      0.039700
    114 H222       -5.8570   -6.9660   -5.3110 hc        1 LI1      0.039700
    115 H23        -3.2190   -8.5120   -5.7600 hc        1 LI1      0.045700
    116 H241       -6.0030   -9.4270   -4.7660 hc        1 LI1      0.033033
    117 H242       -4.6580  -10.5310   -5.2710 hc        1 LI1      0.033033
    118 H243       -4.4420   -9.4250   -3.8520 hc        1 LI1      0.033033
    119 H251       -4.4390   -9.7150   -7.5230 hc        1 LI1      0.039200
    120 H252       -4.2130   -7.9610   -7.8910 hc        1 LI1      0.039200
    121 H261       -6.5690   -7.4820   -7.3010 hc        1 LI1      0.043200
    122 H262       -6.8240   -9.1930   -6.7740 hc        1 LI1      0.043200
    123 H271       -6.2890  -10.0020   -9.0750 hc        1 LI1      0.037700
    124 H272       -5.9670   -8.3080   -9.6140 hc        1 LI1      0.037700
    125 H28        -8.1620   -9.1290  -10.3410 hc        1 LI1      0.041700
    126 H291       -9.9930   -9.6030   -8.7930 hc        1 LI1      0.033200
    127 H292       -8.9580   -9.2400   -7.3540 hc        1 LI1      0.033200
    128 H293       -8.5880  -10.6780   -8.3920 hc        1 LI1      0.033200
    129 H301       -9.5220   -7.2180   -9.6400 hc        1 LI1      0.033200
    130 H302       -8.4850   -6.9340   -8.1850 hc        1 LI1      0.033200
    131 H303       -7.8000   -6.6870   -9.8440 hc        1 LI1      0.033200
@<TRIPOS>BOND
     1    1    2 1   
     2    1    4 1   
     3    1   46 1   
     4    1   47 1   
     5    2    3 1   
     6    2    5 1   
     7    2   48 1   
     8    3    6 1   
     9    3   49 1   
    10    3   50 1   
    11    4   26 1   
    12    5    7 1   
    13    6   51 1   
    14    7    8 1   
    15    7   52 1   
    16    7   53 1   
    17    8    9 1   
    18    8   54 1   
    19    8   55 1   
    20    9   10 1   
    21    9   11 1   
    22    9   56 1   
    23   10   57 1   
    24   10   58 1   
    25   10   59 1   
    26   11   12 1   
    27   11   60 1   
    28   11   61 1   
    29   12   13 1   
    30   12   62 1   
    31   12   63 1   
    32   13   14 1   
    33   13   64 1   
    34   13   65 1   
    35   14   15 1   
    36   14   16 1   
    37   14   66 1   
    38   15   67 1   
    39   15   68 1   
    40   15   69 1   
    41   16   17 1   
    42   16   70 1   
    43   16   71 1   
    44   17   18 1   
    45   17   72 1   
    46   17   73 1   
    47   18   19 1   
    48   18   74 1   
    49   18   75 1   
    50   19   20 1   
    51   19   76 1   
    52   19   77 1   
    53   20   21 1   
    54   20   78 1   
    55   20   79 1   
    56   21   22 1   
    57   21   80 1   
    58   21   81 1   
    59   22   23 1   
    60   22   82 1   
    61   22   83 1   
    62   23   24 1   
    63   23   25 1   
    64   23   84 1   
    65   24   85 1   
    66   24   86 1   
    67   24   87 1   
    68   25   88 1   
    69   25   89 1   
    70   25   90 1   
    71   26   27 1   
    72   26   91 1   
    73   26   92 1   
    74   27   28 1   
    75   27   93 1   
    76   27   94 1   
    77   28   29 1   
    78   28   30 1   
    79   28   95 1   
    80   29   96 1   
    81   29   97 1   
    82   29   98 1   
    83   30   31 1   
    84   30   99 1   
    85   30  100 1   
    86   31   32 1   
    87   31  101 1   
    88   31  102 1   
    89   32   33 1   
    90   32  103 1   
    91   32  104 1   
    92   33   34 1   
    93   33   35 1   
    94   33  105 1   
    95   34  106 1   
    96   34  107 1   
    97   34  108 1   
    98   35   36 1   
    99   35  109 1   
   100   35  110 1   
   101   36   37 1   
   102   36  111 1   
   103   36  112 1   
   104   37   38 1   
   105   37  113 1   
   106   37  114 1   
   107   38   39 1   
   108   38   40 1   
   109   38  115 1   
   110   39  116 1   
   111   39  117 1   
   112   39  118 1   
   113   40   41 1   
   114   40  119 1   
   115   40  120 1   
   116   41   42 1   
   117   41  121 1   
   118   41  122 1   
   119   42   43 1   
   120   42  123 1   
   121   42  124 1   
   122   43   44 1   
   123   43   45 1   
   124   43  125 1   
   125   44  126 1   
   126   44  127 1   
   127   44  128 1   
   128   45  129 1   
   129   45  130 1   
   130   45  131 1   
@<TRIPOS>SUBSTRUCTURE
     1 LI1         1 TEMP              0 ****  ****    0 ROOT
