@<TRIPOS>MOLECULE
LI2
   58    62     1     0     0
SMALL
bcc


@<TRIPOS>ATOM
      1 F1           0.0000     0.0000     0.0000 f          1 LI2      -0.126900
      2 C2           1.3510     0.0000     0.0000 ca         1 LI2       0.125900
      3 C3           2.0410     0.0000     1.2000 ca         1 LI2      -0.185000
      4 C4           3.4300     0.0010     1.2070 ca         1 LI2       0.028600
      5 C5           4.1300     0.0010     0.0100 ca         1 LI2      -0.064000
      6 C6           3.4360     0.0000    -1.1990 ca         1 LI2      -0.111600
      7 C7           2.0400    -0.0050    -1.1980 ca         1 LI2      -0.144000
      8 C8           4.1760     0.0030    -2.4790 c          1 LI2       0.576700
      9 O9           5.3920     0.0030    -2.4780 o          1 LI2      -0.631100
     10 N10          3.5030     0.0020    -3.6470 ns         1 LI2      -0.026100
     11 C11          4.1990     0.1190    -4.8560 ca         1 LI2      -0.129400
     12 C12          3.7280    -0.5330    -5.9940 ca         1 LI2      -0.108000
     13 C13          4.4010    -0.4280    -7.1900 ca         1 LI2      -0.085000
     14 C14          5.5610     0.3350    -7.2720 ca         1 LI2      -0.234200
     15 N15          6.4330     0.6240    -8.3000 na         1 LI2       0.356600
     16 C17          7.4350     1.4360    -7.8450 cc         1 LI2      -0.264100
     17 C18          7.2560     1.6980    -6.5400 cd         1 LI2      -0.148400
     18 C19          8.1380     2.5510    -5.6680 c3         1 LI2       0.070800
     19 C20          7.6510     4.0010    -5.7130 c3         1 LI2       0.025900
     20 C21          8.5340     4.8550    -4.8410 ca         1 LI2      -0.055300
     21 C22          9.6640     5.4690    -5.3600 ca         1 LI2      -0.221300
     22 C23         10.4500     6.2460    -4.5290 ca         1 LI2       0.405200
     23 N24         10.1350     6.4060    -3.2590 nb         1 LI2      -0.589000
     24 C25          9.0670     5.8380    -2.7320 ca         1 LI2       0.405200
     25 C26          8.2320     5.0510    -3.5030 ca         1 LI2      -0.221300
     26 C27          6.0390     0.9950    -6.1260 ca         1 LI2      -0.079800
     27 C28          5.3470     0.8870    -4.9180 ca         1 LI2      -0.031000
     28 N29          4.1210     0.0000     2.4200 nh         1 LI2      -0.347000
     29 C30          3.1080    -0.0000     3.4840 c3         1 LI2       0.081800
     30 C31          3.7920     0.1740     4.8410 c3         1 LI2       0.199400
     31 O32          4.4480     1.4410     4.8900 os         1 LI2      -0.392600
     32 C33          5.4630     1.4300     3.8870 c3         1 LI2       0.199400
     33 C34          4.8230     1.2880     2.5060 c3         1 LI2       0.081800
     34 H3           1.4960    -0.0000     2.1370 ha         1 LI2       0.147000
     35 H5           5.2130     0.0030     0.0140 ha         1 LI2       0.142000
     36 H7           1.4970    -0.0050    -2.1360 ha         1 LI2       0.118000
     37 H10          2.5070    -0.0900    -3.6510 hn         1 LI2       0.170500
     38 H12          2.8250    -1.1280    -5.9370 ha         1 LI2       0.103000
     39 H13          4.0260    -0.9390    -8.0690 ha         1 LI2       0.100000
     40 H15          6.3460     0.2900    -9.2400 hn         1 LI2       0.113700
     41 H17          8.2530     1.8120    -8.4470 h4         1 LI2       0.141000
     42 H191         8.0980     2.1880    -4.6490 hc         1 LI2       0.021700
     43 H192         9.1590     2.5020    -6.0290 hc         1 LI2       0.021700
     44 H201         6.6310     4.0500    -5.3530 hc         1 LI2       0.022200
     45 H202         7.6910     4.3630    -6.7330 hc         1 LI2       0.022200
     46 H22          9.9270     5.3410    -6.4030 ha         1 LI2       0.115500
     47 H23         11.3340     6.7290    -4.9270 h4         1 LI2      -0.021900
     48 H25          8.8390     5.9940    -1.6850 h4         1 LI2      -0.021900
     49 H26          7.3570     4.5880    -3.0640 ha         1 LI2       0.115500
     50 H28          5.6350     1.4990    -4.0720 ha         1 LI2       0.129000
     51 H301         2.5720    -0.9410     3.4690 h1         1 LI2       0.032450
     52 H302         2.4170     0.8180     3.3220 h1         1 LI2       0.032450
     53 H311         4.5220    -0.6140     4.9790 h1         1 LI2       0.017450
     54 H312         3.0480     0.1250     5.6260 h1         1 LI2       0.017450
     55 H331         6.0210     2.3580     3.9310 h1         1 LI2       0.017450
     56 H332         6.1310     0.5940     4.0610 h1         1 LI2       0.017450
     57 H341         5.5940     1.3290     1.7470 h1         1 LI2       0.032450
     58 H342         4.1160     2.0940     2.3530 h1         1 LI2       0.032450
@<TRIPOS>BOND
     1     1     2 1   
     2     2     3 ar  
     3     2     7 ar  
     4     3     4 ar  
     5     3    34 1   
     6     4     5 ar  
     7     4    28 1   
     8     5     6 ar  
     9     5    35 1   
    10     6     7 ar  
    11     6     8 1   
    12     7    36 1   
    13     8     9 2   
    14     8    10 1   
    15    10    11 1   
    16    10    37 1   
    17    11    12 ar  
    18    11    27 ar  
    19    12    13 ar  
    20    12    38 1   
    21    13    14 ar  
    22    13    39 1   
    23    14    15 1   
    24    14    26 ar  
    25    15    16 1   
    26    15    40 1   
    27    16    17 2   
    28    16    41 1   
    29    17    18 1   
    30    17    26 1   
    31    18    19 1   
    32    18    42 1   
    33    18    43 1   
    34    19    20 1   
    35    19    44 1   
    36    19    45 1   
    37    20    21 ar  
    38    20    25 ar  
    39    21    22 ar  
    40    21    46 1   
    41    22    23 ar  
    42    22    47 1   
    43    23    24 ar  
    44    24    25 ar  
    45    24    48 1   
    46    25    49 1   
    47    26    27 ar  
    48    27    50 1   
    49    28    29 1   
    50    28    33 1   
    51    29    30 1   
    52    29    51 1   
    53    29    52 1   
    54    30    31 1   
    55    30    53 1   
    56    30    54 1   
    57    31    32 1   
    58    32    33 1   
    59    32    55 1   
    60    32    56 1   
    61    33    57 1   
    62    33    58 1   
@<TRIPOS>SUBSTRUCTURE
     1 LI2         1 TEMP              0 ****  ****    0 ROOT
