@<TRIPOS>MOLECULE
molecule
   43    46     1     0     0
SMALL
bcc


@<TRIPOS>ATOM
      1 F1           0.0000     0.0000     0.0000 f          1 LI3      -0.137900
      2 C2           1.3510     0.0000     0.0000 ca         1 LI3       0.147900
      3 C3           2.0410     0.0000     1.2000 ca         1 LI3      -0.202000
      4 C4           3.4300     0.0010     1.2070 ca         1 LI3       0.091600
      5 C5           4.1290     0.0010     0.0090 ca         1 LI3      -0.092000
      6 C6           3.4360     0.0010    -1.2000 ca         1 LI3      -0.105600
      7 C7           2.0400    -0.0060    -1.1980 ca         1 LI3      -0.168000
      8 C8           4.1760     0.0010    -2.4780 c          1 LI3       0.672700
      9 O9           5.3910     0.0010    -2.4780 o          1 LI3      -0.586100
     10 N10          3.5030     0.0000    -3.6460 ns         1 LI3      -0.470100
     11 C11          4.1980     0.1170    -4.8560 ca         1 LI3       0.019600
     12 C12          3.7280    -0.5360    -5.9940 ca         1 LI3      -0.134000
     13 C13          4.4010    -0.4320    -7.1910 ca         1 LI3      -0.129000
     14 C14          5.5610     0.3300    -7.2730 ca         1 LI3      -0.050200
     15 N15          6.4330     0.6180    -8.3010 na         1 LI3      -0.185400
     16 C17          7.4360     1.4300    -7.8460 cc         1 LI3      -0.102100
     17 C18          7.2560     1.6920    -6.5410 cd         1 LI3      -0.195200
     18 C19          6.0390     0.9900    -6.1270 ca         1 LI3      -0.088800
     19 C20          5.3470     0.8820    -4.9190 ca         1 LI3      -0.070000
     20 N21          4.1210     0.0020     2.4200 nh         1 LI3      -0.541000
     21 C22          3.1090     0.0030     3.4850 c3         1 LI3       0.098300
     22 C23          3.7910     0.1770     4.8410 c3         1 LI3       0.123900
     23 O24          4.4470     1.4430     4.8900 os         1 LI3      -0.402600
     24 C25          5.4630     1.4310     3.8880 c3         1 LI3       0.123900
     25 C26          4.8220     1.2880     2.5060 c3         1 LI3       0.098300
     26 H3           1.4970     0.0000     2.1370 ha         1 LI3       0.160000
     27 H5           5.2120     0.0040     0.0140 ha         1 LI3       0.170000
     28 H7           1.4970    -0.0060    -2.1350 ha         1 LI3       0.140000
     29 H10          2.5060    -0.0890    -3.6490 hn         1 LI3       0.323500
     30 H12          2.8250    -1.1320    -5.9360 ha         1 LI3       0.129000
     31 H13          4.0270    -0.9440    -8.0690 ha         1 LI3       0.127000
     32 H15          6.3450     0.2840    -9.2400 hn         1 LI3       0.294700
     33 H17          8.2530     1.8070    -8.4490 h4         1 LI3       0.164000
     34 H18          7.8920     2.3050    -5.9140 ha         1 LI3       0.157000
     35 H20          5.6390     1.4920    -4.0720 ha         1 LI3       0.155000
     36 H221         2.4170     0.8200     3.3220 h1         1 LI3       0.057450
     37 H222         2.5720    -0.9380     3.4710 h1         1 LI3       0.057450
     38 H231         3.0460     0.1280     5.6270 h1         1 LI3       0.058700
     39 H232         4.5210    -0.6110     4.9800 h1         1 LI3       0.058700
     40 H251         6.0200     2.3590     3.9300 h1         1 LI3       0.058700
     41 H252         6.1310     0.5960     4.0620 h1         1 LI3       0.058700
     42 H261         5.5940     1.3290     1.7460 h1         1 LI3       0.057450
     43 H262         4.1150     2.0940     2.3520 h1         1 LI3       0.057450
@<TRIPOS>BOND
     1     1     2 1
     2     2     3 ar
     3     2     7 ar
     4     3     4 ar
     5     3    26 1
     6     4     5 ar
     7     4    20 1
     8     5     6 ar
     9     5    27 1
    10     6     7 ar
    11     6     8 1
    12     7    28 1
    13     8     9 2
    14     8    10 1
    15    10    11 1
    16    10    29 1
    17    11    12 ar
    18    11    19 ar
    19    12    13 ar
    20    12    30 1
    21    13    14 ar
    22    13    31 1
    23    14    15 1
    24    14    18 ar
    25    15    16 1
    26    15    32 1
    27    16    17 2
    28    16    33 1
    29    17    18 1
    30    17    34 1
    31    18    19 ar
    32    19    35 1
    33    20    21 1
    34    20    25 1
    35    21    22 1
    36    21    36 1
    37    21    37 1
    38    22    23 1
    39    22    38 1
    40    22    39 1
    41    23    24 1
    42    24    25 1
    43    24    40 1
    44    24    41 1
    45    25    42 1
    46    25    43 1
@<TRIPOS>SUBSTRUCTURE
     1 LI3         1 TEMP              0 ****  ****    0 ROOT
