@<TRIPOS>MOLECULE
LI4
   33    35     1     0     0
SMALL
bcc


@<TRIPOS>ATOM
      1 C1           0.0000     0.0000     0.0000 ca         1 LI4      -0.179300
      2 C2           1.3890     0.0000     0.0000 ca         1 LI4      -0.193000
      3 C3           2.0500     0.0000     1.2180 ca         1 LI4       0.016800
      4 C4           1.2990    -0.0120     2.3960 ca         1 LI4       0.462200
      5 C6          -0.6760    -0.0070     1.2030 ca         1 LI4       0.366200
      6 O10          3.4080     0.0010     1.2670 os         1 LI4      -0.261900
      7 N12          1.9470    -0.0190     3.6280 nv         1 LI4      -0.645500
      8 C13          5.3840     0.0050    -2.5500 ca         1 LI4      -0.105000
      9 C15          6.0690    -0.0020    -1.3240 ca         1 LI4      -0.021000
     10 C16          7.4860     0.0040    -1.3200 ca         1 LI4      -0.035000
     11 C17          8.1800     0.0050    -2.5420 ca         1 LI4      -0.081000
     12 C18          7.4830     0.0060    -3.7100 ca         1 LI4      -0.104000
     13 C19          6.0890     0.0050    -3.7150 ca         1 LI4      -0.091000
     14 C23          5.3770     0.0020    -0.1020 ca         1 LI4      -0.103300
     15 C24          6.0730     0.0020     1.0680 ca         1 LI4      -0.078000
     16 C25          7.4670     0.0020     1.0720 ca         1 LI4      -0.099000
     17 C26          8.1710     0.0030    -0.0930 ca         1 LI4      -0.086000
     18 N3          -0.0230    -0.0130     2.3500 nb         1 LI4      -0.555000
     19 C9           3.8700     0.0020    -0.0840 c3         1 LI4       0.230700
     20 H1          -0.5470     0.0020    -0.9350 ha         1 LI4       0.110000
     21 H2           1.9430     0.0070    -0.9310 ha         1 LI4       0.134000
     22 H6          -1.7590    -0.0070     1.2060 h4         1 LI4      -0.018900
     23 H121         2.1600     0.8450     4.0860 hn         1 LI4       0.274800
     24 H122         2.1620    -0.8880     4.0750 hn         1 LI4       0.274800
     25 H17          9.2630     0.0060    -2.5540 ha         1 LI4       0.107000
     26 H18          8.0190     0.0060    -4.6520 ha         1 LI4       0.102000
     27 H19          5.5590     0.0060    -4.6590 ha         1 LI4       0.101000
     28 H24          5.5370     0.0020     2.0090 ha         1 LI4       0.121000
     29 H25          7.9970     0.0020     2.0170 ha         1 LI4       0.103000
     30 H26          9.2550     0.0030    -0.0750 ha         1 LI4       0.106000
     31 H9C1         3.5040     0.8870    -0.5900 h1         1 LI4       0.020700
     32 H9C2         3.5040    -0.8820    -0.5920 h1         1 LI4       0.020700
     33 H13          4.3010     0.0040    -2.5690 ha         1 LI4       0.105000
@<TRIPOS>BOND
     1     1     2 ar  
     2     1     5 ar  
     3     1    20 1   
     4     2     3 ar  
     5     2    21 1   
     6     3     4 ar  
     7     3     6 1   
     8     4     7 1   
     9     4    18 ar  
    10     5    18 ar  
    11     5    22 1   
    12     6    19 1   
    13     7    23 1   
    14     7    24 1   
    15     8     9 ar  
    16     8    13 ar  
    17     8    33 1   
    18     9    10 ar  
    19     9    14 ar  
    20    10    11 ar  
    21    10    17 ar  
    22    11    12 ar  
    23    11    25 1   
    24    12    13 ar  
    25    12    26 1   
    26    13    27 1   
    27    14    15 ar  
    28    14    19 1   
    29    15    16 ar  
    30    15    28 1   
    31    16    17 ar  
    32    16    29 1   
    33    17    30 1   
    34    19    31 1   
    35    19    32 1   
@<TRIPOS>SUBSTRUCTURE
     1 LI4         1 TEMP              0 ****  ****    0 ROOT
