@<TRIPOS>MOLECULE
molecule
   26    25     1     0     0
SMALL
bcc


@<TRIPOS>ATOM
      1 O2P          0.0000     0.0000     0.0000 o          1 LI5      -0.784000
      2 P            1.6260     0.0000     0.0000 p5         1 LI5       1.095800
      3 O1P          2.1830     0.0000     1.3990 o          1 LI5      -0.784000
      4 O3P          1.9300    -1.3950    -0.7760 os         1 LI5      -0.545200
      5 C1           1.2230    -1.6640    -1.9760 c3         1 LI5       0.192400
      6 C2           2.0720    -2.5250    -2.9090 c3         1 LI5       0.150100
      7 O2           2.3470    -3.7770    -2.2890 oh         1 LI5      -0.585800
      8 C3           3.3860    -1.8770    -3.3600 c3         1 LI5      -0.165400
      9 C4           4.2320    -2.7360    -4.2780 c          1 LI5       0.469100
     10 O30          3.9580    -3.8730    -4.6360 o          1 LI5      -0.472100
     11 C30          5.5390    -2.1580    -4.7780 c          1 LI5       0.461100
     12 O5           6.2230    -2.8690    -5.5000 o          1 LI5      -0.487100
     13 C31          5.9030    -0.7580    -4.3440 c3         1 LI5      -0.178400
     14 C32          7.2470    -0.3220    -4.9030 c3         1 LI5      -0.085100
     15 H11          0.3050    -2.1890    -1.7400 h1         1 LI5       0.032700
     16 H12          0.9850    -0.7290    -2.4680 h1         1 LI5       0.032700
     17 H2           1.4830    -2.7210    -3.7970 h1         1 LI5       0.011700
     18 HO2          1.6490    -4.3820    -2.4790 ho         1 LI5       0.397000
     19 H31          3.9700    -1.6410    -2.4790 hc         1 LI5       0.079700
     20 H32          3.1530    -0.9530    -3.8750 hc         1 LI5       0.079700
     21 H311         5.9440    -0.7240    -3.2620 hc         1 LI5       0.073700
     22 H312         5.1380    -0.0720    -4.6890 hc         1 LI5       0.073700
     23 H321         8.0190    -0.9970    -4.5560 hc         1 LI5       0.040033
     24 H322         7.2100    -0.3400    -5.9860 hc         1 LI5       0.040033
     25 H323         7.4690     0.6840    -4.5670 hc         1 LI5       0.040033
     26 HP1          2.1320     1.1180    -0.6860 hp         1 LI5      -0.180400
@<TRIPOS>BOND
     1     1     2 1
     2     2     3 1
     3     2     4 1
     4     4     5 1
     5     5     6 1
     6     5    15 1
     7     5    16 1
     8     6     7 1
     9     6     8 1
    10     6    17 1
    11     7    18 1
    12     8     9 1
    13     8    19 1
    14     8    20 1
    15     9    10 2
    16     9    11 1
    17    11    12 2
    18    11    13 1
    19    13    14 1
    20    13    21 1
    21    13    22 1
    22    14    23 1
    23    14    24 1
    24    14    25 1
    25    26     2 1
@<TRIPOS>SUBSTRUCTURE
     1 LI5         1 TEMP              0 ****  ****    0 ROOT
