@<TRIPOS>MOLECULE
LI5
   26    25     1     0     0
SMALL
bcc


@<TRIPOS>ATOM
      1 O2P         3.8490   -0.2160   -1.4150 o         1 LI5     -0.857500
      2 P           2.5460   -0.1790   -0.7050 p5        1 LI5      1.349800
      3 O1P         1.4910    0.7860   -1.0630 o         1 LI5     -0.857500
      4 O3P         1.9010   -1.7030   -0.8970 os        1 LI5     -0.595200
      5 C1          1.3710   -1.9800   -2.1550 c3        1 LI5      0.162400
      6 C2          2.1180   -3.1720   -2.7840 c3        1 LI5      0.128100
      7 O2          2.0670   -4.2950   -1.9190 oh        1 LI5     -0.620800
      8 C3          3.5730   -2.8200   -3.0780 c3        1 LI5     -0.249400
      9 C4          3.8070   -2.2960   -4.4540 c         1 LI5      0.506100
     10 O30         2.9950   -2.3310   -5.3830 o         1 LI5     -0.544100
     11 C30         5.1750   -1.6710   -4.6410 c         1 LI5      0.498100
     12 O5          6.1380   -2.3470   -5.0160 o         1 LI5     -0.549100
     13 C31         5.2310   -0.2170   -4.3030 c3        1 LI5     -0.214400
     14 C32         6.5500    0.4180   -4.6460 c3        1 LI5     -0.074100
     15 H11         1.4420   -1.0810   -2.8250 h1        1 LI5      0.035200
     16 H12         0.2900   -2.2730   -2.0330 h1        1 LI5      0.035200
     17 H2          1.5930   -3.5030   -3.7230 h1        1 LI5      0.069700
     18 HO2         2.2470   -3.9630   -1.0280 ho        1 LI5      0.419000
     19 H31         4.2160   -3.7310   -2.9410 hc        1 LI5      0.116700
     20 H32         3.9140   -2.0360   -2.3280 hc        1 LI5      0.116700
     21 H311        4.3930    0.3040   -4.8410 hc        1 LI5      0.120700
     22 H312        5.0150   -0.1110   -3.1920 hc        1 LI5      0.120700
     23 H321        7.3840   -0.1130   -4.1250 hc        1 LI5      0.030367
     24 H322        6.5510    1.4880   -4.3270 hc        1 LI5      0.030367
     25 H323        6.7420    0.3700   -5.7450 hc        1 LI5      0.030367
     26 HP1         2.7280   -0.2490    0.5960 hp        1 LI5     -0.204400
@<TRIPOS>BOND
     1    1    2 1   
     2    2    3 1   
     3    2    4 1   
     4    2   26 1   
     5    4    5 1   
     6    5    6 1   
     7    5   15 1   
     8    5   16 1   
     9    6    7 1   
    10    6    8 1   
    11    6   17 1   
    12    7   18 1   
    13    8    9 1   
    14    8   19 1   
    15    8   20 1   
    16    9   10 2   
    17    9   11 1   
    18   11   12 2   
    19   11   13 1   
    20   13   14 1   
    21   13   21 1   
    22   13   22 1   
    23   14   23 1   
    24   14   24 1   
    25   14   25 1   
@<TRIPOS>SUBSTRUCTURE
     1 LI5         1 TEMP              0 ****  ****    0 ROOT
