@<TRIPOS>MOLECULE
LI6
   23    24     1     0     0
SMALL
bcc


@<TRIPOS>ATOM
      1 C4          0.1240   -0.0380    0.0150 c2        1 LI6     -0.212000
      2 C5          1.5850   -0.0440   -0.0580 c2        1 LI6      0.207000
      3 C6          2.2960   -0.0290    1.1720 c2        1 LI6     -0.274000
      4 C7          3.7440   -0.0520    1.1420 c2        1 LI6      0.211000
      5 C8          4.3960   -0.1080   -0.0670 c2        1 LI6     -0.149000
      6 C9          3.6640   -0.0830   -1.3260 c2        1 LI6      0.329000
      7 O13         5.7630   -0.2680   -0.1260 oh        1 LI6     -0.220000
      8 N10         2.2330   -0.0590   -1.2650 n         1 LI6     -0.217000
      9 C11         1.4870   -0.0780   -2.5020 c3        1 LI6     -0.110000
     10 O14         4.4580   -0.0380    2.2960 oh        1 LI6     -0.218000
     11 C3         -0.5140   -0.0090    1.2020 c2        1 LI6     -0.078000
     12 C2          0.2090    0.0180    2.4930 c3        1 LI6     -0.185000
     13 C1          1.6610    0.0040    2.4120 c1        1 LI6     -0.141000
     14 H4         -0.4510   -0.0590   -0.9250 ha        1 LI6      0.144000
     15 H13         6.0740    0.2780   -0.8680 ho        1 LI6      0.220000
     16 H111        0.8420    0.8370   -2.5750 h1        1 LI6      0.107333
     17 H112        0.8420   -0.9960   -2.5490 h1        1 LI6      0.107333
     18 H113        2.1990   -0.0900   -3.3730 h1        1 LI6      0.107333
     19 H14         3.8210   -0.0280    3.0410 ho        1 LI6      0.265000
     20 H3         -0.1060   -0.8670    3.1220 hc        1 LI6      0.161500
     21 H2         -1.6160   -0.0040    1.2440 ha        1 LI6      0.137000
     22 H1         -0.0920    0.9380    3.0780 hc        1 LI6      0.161500
     23 O12         4.2210   -0.0480   -2.4400 o         1 LI6     -0.352000
@<TRIPOS>BOND
     1    1    2 1
     2    1   11 1
     3    1   14 1
     4    2    3 1
     5    2    8 1
     6    3    4 1
     7    3   13 1
     8    4    5 1
     9    4   10 1
    10    5    6 1
    11    5    7 1
    12    6    8 1
    13    6   23 1
    14    7   15 1
    15    8    9 1
    16    9   16 1
    17    9   17 1
    18    9   18 1
    19   10   19 1
    20   11   12 1
    21   11   21 1
    22   12   13 1
    23   12   20 1
    24   12   22 1
@<TRIPOS>SUBSTRUCTURE
     1 LI6         1 TEMP              0 ****  ****    0 ROOT
