@<TRIPOS>MOLECULE
LI7
   28    30     1     0     0
SMALL
bcc


@<TRIPOS>ATOM
      1 C4           0.0000     0.0000     0.0000 ca         1 LI7      -0.016000
      2 C5           1.3920     0.0000     0.0000 ca         1 LI7      -0.191900
      3 C6           2.1000     0.0000     1.2100 ca         1 LI7      -0.098400
      4 C8           3.7100    -0.0190    -0.3750 c          1 LI7       0.496200
      5 C13          4.3070    -0.9100    -5.1990 ca         1 LI7      -0.142500
      6 C15          5.3970     0.7970    -3.8880 ca         1 LI7      -0.142500
      7 O18          4.8070    -0.0270    -0.9010 o          1 LI7      -0.642500
      8 C9           2.4040    -0.0180    -1.0780 cc         1 LI7       0.328900
      9 N7           3.4650    -0.0070     0.9460 ns         1 LI7       0.006900
     10 C3          -0.6850     0.0120     1.1980 ca         1 LI7      -0.133000
     11 C2           0.0110     0.0180     2.3950 ca         1 LI7      -0.059000
     12 C1           1.3910     0.0130     2.4060 ca         1 LI7      -0.122000
     13 N10          2.1930    -0.0270    -2.3730 nf         1 LI7      -0.334100
     14 C11          3.2440    -0.0380    -3.2320 ca         1 LI7       0.017400
     15 C12          3.2420    -0.9030    -4.3350 ca         1 LI7      -0.044500
     16 C14          5.3860    -0.0600    -4.9840 ca         1 LI7       0.139100
     17 O17          6.4380    -0.0710    -5.8430 oh         1 LI7      -0.501100
     18 C16          4.3360     0.8170    -3.0200 ca         1 LI7      -0.044500
     19 H4          -0.5440    -0.0050    -0.9370 ha         1 LI7       0.114000
     20 H15          6.2410     1.4560    -3.7250 ha         1 LI7       0.115500
     21 HN7          4.1750    -0.0040     1.6510 hn         1 LI7       0.178500
     22 H3          -1.7680     0.0160     1.2010 ha         1 LI7       0.109000
     23 H2          -0.5330     0.0270     3.3320 ha         1 LI7       0.104000
     24 H1           1.9240     0.0180     3.3500 ha         1 LI7       0.107000
     25 H12          2.4020    -1.5660    -4.5040 ha         1 LI7       0.117500
     26 H17          6.2870     0.5540    -6.5320 ho         1 LI7       0.402000
     27 H16          4.3450     1.4840    -2.1670 ha         1 LI7       0.117500
     28 H13          4.3060    -1.5770    -6.0530 ha         1 LI7       0.115500
@<TRIPOS>BOND
     1     1     2 ar  
     2     1    10 ar  
     3     1    19 1   
     4     2     3 ar  
     5     2     8 1   
     6     3     9 1   
     7     3    12 ar  
     8     4     7 2   
     9     4     8 1   
    10     4     9 1   
    11     5    15 ar  
    12     5    16 ar  
    13     5    28 1   
    14     6    16 ar  
    15     6    18 ar  
    16     6    20 1   
    17     8    13 2   
    18     9    21 1   
    19    10    11 ar  
    20    10    22 1   
    21    11    12 ar  
    22    11    23 1   
    23    12    24 1   
    24    13    14 1   
    25    14    15 ar  
    26    14    18 ar  
    27    15    25 1   
    28    16    17 1   
    29    17    26 1   
    30    18    27 1   
@<TRIPOS>SUBSTRUCTURE
     1 LI7         1 TEMP              0 ****  ****    0 ROOT
