@<TRIPOS>MOLECULE
molecule
   67    69     1     0     0
SMALL
bcc


@<TRIPOS>ATOM
      1 C1           0.0000     0.0000     0.0000 ca         1 LI8      -0.396500
      2 C2           1.3970     0.0000     0.0000 ca         1 LI8       0.786200
      3 N3           2.0420     0.0000     1.1620 nb         1 LI8      -0.867000
      4 C4           1.3730    -0.0050     2.3050 ca         1 LI8       0.987900
      5 N5           0.0480    -0.0100     2.3350 nb         1 LI8      -0.806000
      6 C6          -0.6590    -0.0100     1.2150 ca         1 LI8       0.560200
      7 Br7         -0.9680     0.0010    -1.6250 br         1 LI8      -0.097100
      8 N8           2.0750    -0.0040     3.4990 nu         1 LI8      -0.745300
      9 C10          1.3920    -0.1320     4.7130 ca         1 LI8       0.164600
     10 C11          1.7890     0.6130     5.8140 ca         1 LI8      -0.155000
     11 C12          1.1040     0.4880     7.0150 ca         1 LI8       0.094600
     12 C13          0.0320    -0.3900     7.1140 ca         1 LI8      -0.174000
     13 C14         -0.3570    -1.1350     6.0160 ca         1 LI8      -0.097000
     14 C15          0.3190    -1.0080     4.8170 ca         1 LI8      -0.137000
     15 N16          1.4980     1.2410     8.1270 ns         1 LI8      -0.493100
     16 C18          1.9340     2.5060     7.9640 c          1 LI8       0.802100
     17 O19          1.9150     3.0170     6.8620 o          1 LI8      -0.643100
     18 N20          2.3880     3.2040     9.0240 n          1 LI8      -0.514800
     19 C21          2.8910     4.5850     8.9890 c3         1 LI8       0.106500
     20 C22          3.3230     4.9520    10.4240 c3         1 LI8      -0.095900
     21 C23          3.5660     3.5660    11.0780 c3         1 LI8      -0.095900
     22 C24          2.4590     2.7100    10.4120 c3         1 LI8       0.106500
     23 N25          2.1000     0.0040    -1.1940 nu         1 LI8      -0.913900
     24 C27          3.5650     0.0100    -1.1820 c3         1 LI8       0.249800
     25 C28          4.0870     0.0140    -2.6200 c3         1 LI8      -0.124400
     26 N29          6.1160     0.0240    -3.9840 ns         1 LI8      -0.563900
     27 C31          7.4440     0.0290    -4.2190 c          1 LI8       0.661100
     28 O32          8.2240     0.0300    -3.2910 o          1 LI8      -0.551100
     29 C33          5.6170     0.0190    -2.6070 c3         1 LI8       0.114000
     30 C34          7.9580     0.0330    -5.6350 c3         1 LI8      -0.227000
     31 C35          7.4490     1.2820    -6.3580 c3         1 LI8      -0.097100
     32 C36          7.4590    -1.2160    -6.3630 c3         1 LI8      -0.097100
     33 C37          9.4660     0.0380    -5.6220 c          1 LI8       0.474100
     34 O38         10.0630     0.0390    -4.5670 o          1 LI8      -0.325100
     35 N39         10.1490     0.0430    -6.7840 nz         1 LI8      -0.684400
     36 H6          -1.7420    -0.0120     1.2500 h4         1 LI8       0.045100
     37 HN8          3.0720     0.0830     3.4930 hn         1 LI8       0.465800
     38 H11          2.6250     1.2960     5.7350 ha         1 LI8       0.162000
     39 H13         -0.5010    -0.4890     8.0510 ha         1 LI8       0.132000
     40 H14         -1.1930    -1.8180     6.0950 ha         1 LI8       0.136000
     41 H15          0.0120    -1.5930     3.9590 ha         1 LI8       0.148000
     42 H16          1.4510     0.8420     9.0430 hn         1 LI8       0.322500
     43 H211         3.7420     4.6490     8.3220 h1         1 LI8       0.047950
     44 H212         2.1050     5.2540     8.6590 h1         1 LI8       0.047950
     45 H221         2.5290     5.4820    10.9370 hc         1 LI8       0.057950
     46 H222         4.2360     5.5330    10.4100 hc         1 LI8       0.057950
     47 H231         3.4230     3.6160    12.1510 hc         1 LI8       0.057950
     48 H232         4.5500     3.1880    10.8270 hc         1 LI8       0.057950
     49 H241         1.5110     2.8640    10.9140 h1         1 LI8       0.047950
     50 H242         2.7340     1.6630    10.4240 h1         1 LI8       0.047950
     51 H25          1.6060     0.0040    -2.0650 hn         1 LI8       0.459800
     52 H271         3.9190     0.8940    -0.6670 h1         1 LI8       0.059700
     53 H272         3.9250    -0.8750    -0.6700 h1         1 LI8       0.059700
     54 H281         3.7330    -0.8700    -3.1360 hc         1 LI8       0.053700
     55 H282         3.7270     0.8990    -3.1320 hc         1 LI8       0.053700
     56 H29          5.4730    -0.0050    -4.7500 hn         1 LI8       0.317500
     57 H331         5.9760    -0.8650    -2.0950 h1         1 LI8       0.070200
     58 H332         5.9710     0.9040    -2.0910 h1         1 LI8       0.070200
     59 H351         7.8230     1.2870    -7.3750 hc         1 LI8       0.064033
     60 H352         6.3660     1.2750    -6.3720 hc         1 LI8       0.064033
     61 H353         7.7990     2.1670    -5.8410 hc         1 LI8       0.064033
     62 H361         7.7650    -2.0990    -5.8150 hc         1 LI8       0.064033
     63 H362         6.3780    -1.1880    -6.4290 hc         1 LI8       0.064033
     64 H363         7.8810    -1.2460    -7.3600 hc         1 LI8       0.064033
     65 H391         9.9860    -0.8160    -7.2700 hn         1 LI8       0.476467
     66 H392        11.1270     0.1400    -6.5950 hn         1 LI8       0.476467
     67 H393         9.8410     0.8100    -7.3490 hn         1 LI8       0.476467
@<TRIPOS>BOND
     1     1     2 ar
     2     1     6 ar
     3     1     7 1
     4     2     3 ar
     5     2    23 1
     6     3     4 ar
     7     4     5 ar
     8     4     8 1
     9     5     6 ar
    10     6    36 1
    11     8     9 1
    12     8    37 1
    13     9    10 ar
    14     9    14 ar
    15    10    11 ar
    16    10    38 1
    17    11    12 ar
    18    11    15 1
    19    12    13 ar
    20    12    39 1
    21    13    14 ar
    22    13    40 1
    23    14    41 1
    24    15    16 1
    25    15    42 1
    26    16    17 2
    27    16    18 1
    28    18    19 1
    29    18    22 1
    30    19    20 1
    31    19    43 1
    32    19    44 1
    33    20    21 1
    34    20    45 1
    35    20    46 1
    36    21    22 1
    37    21    47 1
    38    21    48 1
    39    22    49 1
    40    22    50 1
    41    23    24 1
    42    23    51 1
    43    24    25 1
    44    24    52 1
    45    24    53 1
    46    25    29 1
    47    25    54 1
    48    25    55 1
    49    26    27 1
    50    26    29 1
    51    26    56 1
    52    27    28 2
    53    27    30 1
    54    29    57 1
    55    29    58 1
    56    30    31 1
    57    30    32 1
    58    30    33 1
    59    31    59 1
    60    31    60 1
    61    31    61 1
    62    32    62 1
    63    32    63 1
    64    32    64 1
    65    33    34 2
    66    33    35 1
    67    35    65 1
    68    35    66 1
    69    67    35 1
@<TRIPOS>SUBSTRUCTURE
     1 LI8         1 TEMP              0 ****  ****    0 ROOT
