@<TRIPOS>MOLECULE
LI9
   64    61     1     0     0
SMALL
bcc


@<TRIPOS>ATOM
      1 C1         -1.7780    1.8210    0.4690 c1        1 LI9     -0.129000
      2 C2         -0.2270   -1.0600    1.8970 c2        1 LI9     -0.162000
      3 C3          1.2090    0.0060    0.1830 c2        1 LI9     -0.113000
      4 C4         -1.5180    0.9200    1.2150 c1        1 LI9     -0.180000
      5 C5         -1.2260   -0.1570    2.0850 c2        1 LI9      0.176000
      6 C6          0.7290   -1.0790    0.8220 c2        1 LI9     -0.087000
      7 C7          2.1740   -0.0550   -0.8740 c2        1 LI9     -0.105000
      8 F9         -2.0480   -0.2840    3.1640 f         1 LI9     -0.102000
      9 N10         3.4970   -0.8820   -2.6630 n         1 LI9     -0.201000
     10 C11         3.3290   -1.4550   -3.9490 c2        1 LI9     -0.086000
     11 C13         2.9490    0.9670   -1.3700 c2        1 LI9      0.102000
     12 C14         3.0270    2.3380   -0.8420 c2        1 LI9     -0.027000
     13 C16         2.4810   -1.2740   -1.6880 c2        1 LI9      0.310000
     14 N17         3.7630    0.5120   -2.4840 na        1 LI9     -0.006000
     15 C18         6.4130    0.7470   -5.8580 c1        1 LI9     -0.193000
     16 C19         3.4510   -1.7300   -6.3890 c3        1 LI9     -0.177000
     17 C20         3.6540   -0.9500   -5.1510 c2        1 LI9     -0.197000
     18 C21         7.1490   -0.5280   -5.9800 c3        1 LI9     -0.247000
     19 N22         6.5630    1.7460   -6.6770 n3        1 LI9     -0.225000
     20 N23         4.1830    2.8640   -0.5280 n2        1 LI9     -0.076000
     21 C24         1.8000    4.3160   -0.0450 c3        1 LI9     -0.203000
     22 N25         5.4200    4.7630    0.2840 n3        1 LI9     -0.321000
     23 C26         1.7180    2.9950   -0.6630 c1        1 LI9     -0.036000
     24 C27         4.1570    4.1940    0.0650 c2        1 LI9      0.103000
     25 N28         3.0550    4.8870    0.3410 n2        1 LI9     -0.254000
     26 C29         7.7750    5.5840    2.0910 c2        1 LI9     -0.157000
     27 C30         8.3420    4.3020    1.7180 c2        1 LI9     -0.157000
     28 C31         7.2630    5.8860    3.2870 c2        1 LI9     -0.207000
     29 C32         7.1140    4.6110   -2.7920 c2        1 LI9     -0.383000
     30 C33         5.9020    4.1410   -4.9280 c1        1 LI9      0.140000
     31 C34         8.7650    3.3730    2.5780 c2        1 LI9     -0.207000
     32 C35         7.6370    4.1360   -1.6780 c1        1 LI9      0.140000
     33 C36         6.1610    3.9730   -3.6580 c2        1 LI9     -0.383000
     34 H1          0.8650    1.0260    0.4440 ha        1 LI9      0.153000
     35 H2          1.0910   -2.0900    0.5450 ha        1 LI9      0.157000
     36 H4         -1.9910    2.6130   -0.2040 ha        1 LI9      0.232000
     37 H6         -0.1320   -1.8890    2.6230 ha        1 LI9      0.151000
     38 H11         2.9130   -2.4830   -3.8540 h4        1 LI9      0.167000
     39 H121        6.7240    2.0170   -1.7650 ha        1 LI9      0.014500
     40 H122        5.3400    0.8380   -3.8440 ha        1 LI9      0.161000
     41 H123        6.9990    2.1070   -1.1470 ha        1 LI9      0.014500
     42 H181        7.7600   -0.6570   -5.0510 hc        1 LI9      0.089333
     43 H182        6.3920   -1.3530   -6.0150 hc        1 LI9      0.089333
     44 H191        6.0540    2.5920   -6.5110 hn        1 LI9      0.200000
     45 H192        4.4260   -1.8560   -6.9260 hc        1 LI9      0.081667
     46 H201        2.7490   -1.1830   -7.0690 hc        1 LI9      0.081667
     47 H202        3.0270   -2.7440   -6.1880 hc        1 LI9      0.081667
     48 H211        4.1010    0.0490   -5.2980 ha        1 LI9      0.157000
     49 H212        7.8260   -0.6260   -6.8670 hc        1 LI9      0.089333
     50 H22         7.1840    1.7660   -7.4620 hn        1 LI9      0.200000
     51 H24         1.2920    5.0390   -0.7670 h1        1 LI9      0.188000
     52 H25         6.1990    4.1370    0.2800 hn        1 LI9      0.226000
     53 H26         1.1240    4.3010    0.8720 h1        1 LI9      0.188000
     54 H29         5.4600    5.4750    0.9810 hn        1 LI9      0.226000
     55 H311        7.2260    5.1690    4.1180 ha        1 LI9      0.114000
     56 H312        7.7890    6.3430    1.2870 ha        1 LI9      0.136500
     57 H313        6.8480    6.8780    3.5100 ha        1 LI9      0.114000
     58 H32         7.4440    5.6290   -3.0960 ha        1 LI9      0.225000
     59 H33         8.4240    4.1310    0.6250 ha        1 LI9      0.136500
     60 H34         8.7200    3.4990    3.6680 ha        1 LI9      0.114000
     61 H35         9.1940    2.4210    2.2390 ha        1 LI9      0.114000
     62 H36         5.5180    3.1600   -3.1810 ha        1 LI9      0.225000
     63 C12         4.6760    1.2460   -3.0510 c1        1 LI9     -0.191000
     64 O15         2.0500   -2.4230   -1.5730 o         1 LI9     -0.288000
@<TRIPOS>BOND
     1    1    4 1   
     2    1   36 1   
     3    2    5 1   
     4    2    6 1   
     5    2   37 1   
     6    3    6 1   
     7    3    7 1   
     8    3   34 1   
     9    4    5 1   
    10    5    8 1   
    11    6   35 1   
    12    7   11 1   
    13    7   13 1   
    14    9   10 1   
    15    9   13 1   
    16    9   14 1   
    17   10   17 1   
    18   10   38 1   
    19   11   12 1   
    20   11   14 1   
    21   12   20 1   
    22   12   23 1   
    23   13   64 1   
    24   14   63 1   
    25   15   18 1   
    26   15   19 1   
    27   16   17 1   
    28   16   45 1   
    29   16   46 1   
    30   16   47 1   
    31   17   48 1   
    32   18   42 1   
    33   18   43 1   
    34   18   49 1   
    35   19   44 1   
    36   19   50 1   
    37   20   24 1   
    38   21   23 1   
    39   21   25 1   
    40   21   51 1   
    41   21   53 1   
    42   22   24 1   
    43   22   52 1   
    44   22   54 1   
    45   24   25 1   
    46   26   27 1   
    47   26   28 1   
    48   26   56 1   
    49   27   31 1   
    50   27   59 1   
    51   28   55 1   
    52   28   57 1   
    53   29   32 1   
    54   29   33 1   
    55   29   58 1   
    56   30   33 1   
    57   31   60 1   
    58   31   61 1   
    59   33   62 1   
    60   39   41 1   
    61   40   63 1   
@<TRIPOS>SUBSTRUCTURE
     1 LI9         1 TEMP              0 ****  ****    0 ROOT
