@<TRIPOS>MOLECULE
molecule
   51    53     1     0     0
SMALL
bcc


@<TRIPOS>ATOM
      1 N1           0.0000     0.0000     0.0000 n3         1 LIA      -0.819500
      2 C2           1.4680     0.0000     0.0000 c3         1 LIA       0.240300
      3 C3           1.9630     0.0000     1.4500 c3         1 LIA      -0.115900
      4 C4           1.3340     1.1790     2.1980 c3         1 LIA       0.255500
      5 C5          -0.1890     1.0250     2.2060 c3         1 LIA      -0.115900
      6 C6          -0.7070     1.0370     0.7640 c3         1 LIA       0.240300
      7 N7           1.8300     1.2000     3.5760 nu         1 LIA      -0.891900
      8 C8           1.8450     2.3840     4.2850 ca         1 LIA       0.988900
      9 N9           1.4070     3.4910     3.6950 nb         1 LIA      -0.838000
     10 C10          1.4020     4.6470     4.3330 ca         1 LIA       0.566200
     11 C11          1.8710     4.6990     5.6520 ca         1 LIA      -0.537200
     12 C12          2.3340     3.5020     6.2410 ca         1 LIA       0.800200
     13 N13          2.2980     2.3810     5.5290 nb         1 LIA      -0.870000
     14 C14          1.8840     5.9660     6.4000 c          1 LIA       0.607300
     15 O15          2.7340     6.8040     6.1630 o          1 LIA      -0.493100
     16 C16          0.8690     6.2200     7.4390 ca         1 LIA      -0.233600
     17 C17         -0.1760     5.3100     7.6380 ca         1 LIA       0.178900
     18 C18         -1.1250     5.5570     8.6130 ca         1 LIA       0.042900
     19 C19         -1.0410     6.6980     9.3960 ca         1 LIA      -0.077000
     20 C20         -0.0100     7.5990     9.2110 ca         1 LIA      -0.236000
     21 C21          0.9500     7.3680     8.2390 ca         1 LIA       0.180100
     22 O22          1.9630     8.2530     8.0580 os         1 LIA      -0.251900
     23 C23          1.7670     9.3030     9.0070 c3         1 LIA       0.095700
     24 F24         -0.2630     4.1980     6.8760 f          1 LIA      -0.106900
     25 F25         -2.1380     4.6830     8.8040 f          1 LIA      -0.126900
     26 N26          2.8070     3.4950     7.5370 nv         1 LIA      -0.996500
     27 S27         -0.8440    -1.1470    -0.8450 s6         1 LIA       1.322900
     28 C28         -1.0540    -2.4820     0.3650 c3         1 LIA      -0.249300
     29 O29         -2.0750    -0.4920    -1.1220 o          1 LIA      -0.625300
     30 O30          0.0650    -1.5120    -1.8750 o          1 LIA      -0.625300
     31 H21          1.8310     0.8870    -0.5060 h1         1 LIA       0.063950
     32 H22          1.8310    -0.8870    -0.5060 h1         1 LIA       0.063950
     33 H31          1.6730    -0.9270     1.9290 hc         1 LIA       0.054200
     34 H32          3.0410     0.0990     1.4630 hc         1 LIA       0.054200
     35 H4           1.5990     2.1030     1.6990 h1         1 LIA       0.085700
     36 H51         -0.6310     1.8480     2.7550 hc         1 LIA       0.054200
     37 H52         -0.4540     0.0860     2.6760 hc         1 LIA       0.054200
     38 H61         -0.5180     2.0070     0.3200 h1         1 LIA       0.063950
     39 H62         -1.7700     0.8300     0.7600 h1         1 LIA       0.063950
     40 HN7          2.1910     0.3640     3.9920 hn         1 LIA       0.455800
     41 H10          1.0400     5.5430     3.8430 h4         1 LIA       0.034100
     42 H19         -1.7880     6.8840    10.1580 ha         1 LIA       0.155000
     43 H20          0.0500     8.4870     9.8280 ha         1 LIA       0.158000
     44 H231         0.8070     9.7740     8.8310 h1         1 LIA       0.049033
     45 H232         1.7890     8.8930    10.0090 h1         1 LIA       0.049033
     46 H233         2.5550    10.0390     8.9000 h1         1 LIA       0.049033
     47 H261         2.9750     2.6250     8.0030 hn         1 LIA       0.446300
     48 H262         3.0220     4.3580     7.9960 hn         1 LIA       0.446300
     49 H281        -1.5540    -3.3200    -0.1040 h1         1 LIA       0.095700
     50 H282        -1.6500    -2.1250     1.1970 h1         1 LIA       0.095700
     51 H283        -0.0830    -2.7980     0.7260 h1         1 LIA       0.095700
@<TRIPOS>BOND
     1     1     2 1
     2     1     6 1
     3     1    27 1
     4     2     3 1
     5     2    31 1
     6     2    32 1
     7     3     4 1
     8     3    33 1
     9     3    34 1
    10     4     5 1
    11     4     7 1
    12     4    35 1
    13     5     6 1
    14     5    36 1
    15     5    37 1
    16     6    38 1
    17     6    39 1
    18     7     8 1
    19     7    40 1
    20     8     9 ar
    21     8    13 ar
    22     9    10 ar
    23    10    11 ar
    24    10    41 1
    25    11    12 ar
    26    11    14 1
    27    12    13 ar
    28    12    26 1
    29    14    15 2
    30    14    16 1
    31    16    17 ar
    32    16    21 ar
    33    17    18 ar
    34    17    24 1
    35    18    19 ar
    36    18    25 1
    37    19    20 ar
    38    19    42 1
    39    20    21 ar
    40    20    43 1
    41    21    22 1
    42    22    23 1
    43    23    44 1
    44    23    45 1
    45    23    46 1
    46    26    47 1
    47    26    48 1
    48    27    28 1
    49    27    29 2
    50    27    30 2
    51    28    49 1
    52    28    50 1
    53    28    51 1
@<TRIPOS>SUBSTRUCTURE
     1 LIA         1 TEMP              0 ****  ****    0 ROOT
