@<TRIPOS>MOLECULE
LIB
   58    60     1     0     0
SMALL
bcc


@<TRIPOS>ATOM
      1 N1          0.2090   -1.0350    0.0480 n         1 LIB     -0.350500
      2 C4         -1.8150    1.0800   -3.0090 ca        1 LIB      0.139100
      3 C5         -1.0570   -1.0010   -2.0420 ca        1 LIB     -0.080000
      4 C6         -0.5600    1.1140   -0.9480 ca        1 LIB     -0.080000
      5 C7         -1.2320    1.7970   -1.9580 ca        1 LIB     -0.184500
      6 C8         -1.7260   -0.3250   -3.0510 ca        1 LIB     -0.184500
      7 C20         3.7060   -0.7830   -1.2670 ca        1 LIB      0.080600
      8 C22         6.4550   -1.1460   -1.8030 ca        1 LIB     -0.148000
      9 C24         4.1940   -0.8470   -2.5990 ca        1 LIB     -0.036600
     10 C26         5.9920   -1.0890   -0.4900 ca        1 LIB     -0.106000
     11 CL28        3.1320   -0.7050   -3.9280 cl        1 LIB     -0.104400
     12 C25         5.5540   -1.0210   -2.8570 ca        1 LIB     -0.102000
     13 C23         4.6420   -0.9070   -0.2160 ca        1 LIB     -0.136000
     14 C1          1.6470   -1.0280    0.0870 c         1 LIB      0.770100
     15 O18         2.2270   -1.4960    1.0880 o         1 LIB     -0.592100
     16 C2         -0.4620   -0.2900   -0.9760 ca        1 LIB     -0.056400
     17 C14        -2.6190    3.0680   -4.0420 c3        1 LIB      0.111700
     18 C3         -0.4350   -0.9810    1.3410 ca        1 LIB      0.578200
     19 C32        -1.2850   -2.0550    1.7100 ca        1 LIB     -0.379600
     20 C37        -1.8650   -1.9750    2.9870 ca        1 LIB      0.460200
     21 N38        -1.6680   -0.9620    3.8400 nb        1 LIB     -0.739000
     22 C34        -0.8410    0.0660    3.3940 ca        1 LIB      0.878900
     23 N33        -0.2030    0.0770    2.1600 nb        1 LIB     -0.769000
     24 N35        -0.6990    1.2250    4.1810 nh        1 LIB     -0.810900
     25 C40        -0.8840    1.1470    5.6220 c3        1 LIB      0.223500
     26 C43         0.1820    0.3180    6.3400 c3        1 LIB     -0.124100
     27 C42        -0.9360    2.5840    6.2340 c3        1 LIB      0.143800
     28 C47        -2.0500    3.4070    5.5980 c3        1 LIB     -0.123100
     29 C46        -1.1580    2.4980    7.7400 c3        1 LIB     -0.123100
     30 O45         0.3330    3.1820    5.9650 oh        1 LIB     -0.605800
     31 H5         -0.9940   -2.1000   -2.0780 ha        1 LIB      0.155500
     32 H6         -0.1080    1.6870   -0.1210 ha        1 LIB      0.155500
     33 H7         -1.2980    2.8940   -1.9150 ha        1 LIB      0.150000
     34 H8         -2.1920   -0.8700   -3.8840 ha        1 LIB      0.150000
     35 H22         7.5250   -1.2880   -2.0110 ha        1 LIB      0.138000
     36 H26         6.7010   -1.1880    0.3470 ha        1 LIB      0.139000
     37 H25         5.9110   -1.0640   -3.8970 ha        1 LIB      0.146000
     38 H23         4.3010   -0.8680    0.8330 ha        1 LIB      0.177000
     39 HN19        1.8070   -0.2870   -1.8400 hn        1 LIB      0.331500
     40 H141       -3.1730    3.4070   -3.1330 h1        1 LIB      0.047367
     41 H142       -3.2050    3.2910   -4.9690 h1        1 LIB      0.047367
     42 H143       -1.6100    3.5460   -4.0880 h1        1 LIB      0.047367
     43 H32        -1.4660   -2.9080    1.0480 ha        1 LIB      0.165000
     44 H37        -2.5280   -2.7820    3.3540 h4        1 LIB      0.028100
     45 HN35        0.0680    1.8160    3.9190 hn        1 LIB      0.434800
     46 H40        -1.8980    0.6850    5.8190 h1        1 LIB      0.082700
     47 H431        1.1500    0.8740    6.3760 hc        1 LIB      0.049367
     48 H432       -0.1520    0.1060    7.3840 hc        1 LIB      0.049367
     49 H433        0.3430   -0.6580    5.8230 hc        1 LIB      0.049367
     50 H471       -1.8050    3.6420    4.5340 hc        1 LIB      0.046700
     51 H472       -3.0100    2.8400    5.6320 hc        1 LIB      0.046700
     52 H473       -2.1800    4.3700    6.1480 hc        1 LIB      0.046700
     53 H461       -2.0080    1.8120    7.9670 hc        1 LIB      0.046700
     54 H462       -0.2360    2.1210    8.2450 hc        1 LIB      0.046700
     55 H463       -1.3940    3.5090    8.1510 hc        1 LIB      0.046700
     56 HO45        0.2940    4.0820    6.3080 ho        1 LIB      0.404000
     57 O13        -2.5020    1.6490   -4.0600 os        1 LIB     -0.322900
     58 N19         2.3420   -0.5420   -1.0340 n         1 LIB     -0.458100
@<TRIPOS>BOND
     1    1   14 1   
     2    1   16 1   
     3    1   18 1   
     4    2    5 ar  
     5    2    6 ar  
     6    2   57 1   
     7    3    6 ar  
     8    3   16 ar  
     9    3   31 1   
    10    4    5 ar  
    11    4   16 ar  
    12    4   32 1   
    13    5   33 1   
    14    6   34 1   
    15    7    9 ar  
    16    7   13 ar  
    17    7   58 1   
    18    8   10 ar  
    19    8   12 ar  
    20    8   35 1   
    21    9   11 1   
    22    9   12 ar  
    23   10   13 ar  
    24   10   36 1   
    25   12   37 1   
    26   13   38 1   
    27   14   15 2   
    28   14   58 1   
    29   17   40 1   
    30   17   41 1   
    31   17   42 1   
    32   17   57 1   
    33   18   19 ar  
    34   18   23 ar  
    35   19   20 ar  
    36   19   43 1   
    37   20   21 ar  
    38   20   44 1   
    39   21   22 ar  
    40   22   23 ar  
    41   22   24 1   
    42   24   25 1   
    43   24   45 1   
    44   25   26 1   
    45   25   27 1   
    46   25   46 1   
    47   26   47 1   
    48   26   48 1   
    49   26   49 1   
    50   27   28 1   
    51   27   29 1   
    52   27   30 1   
    53   28   50 1   
    54   28   51 1   
    55   28   52 1   
    56   29   53 1   
    57   29   54 1   
    58   29   55 1   
    59   30   56 1   
    60   39   58 1   
@<TRIPOS>SUBSTRUCTURE
     1 LIB         1 TEMP              0 ****  ****    0 ROOT
