@<TRIPOS>MOLECULE
LIC
   61    63     1     0     0
SMALL
bcc


@<TRIPOS>ATOM
      1 N1           0.0000     0.0000     0.0000 n          1 LIC       0.050500
      2 C7           3.4850     0.0860    -1.1680 c3         1 LIC       0.122300
      3 C13          4.4410     1.2320    -3.1780 ca         1 LIC      -0.073000
      4 C15          4.4580    -1.1360    -4.6080 ca         1 LIC      -0.100000
      5 C21         -2.0860    -0.2860    -3.6000 ca         1 LIC       0.148100
      6 C22         -0.6780    -1.2800    -1.9340 ca         1 LIC      -0.051000
      7 C24         -2.1050     0.8990    -2.8800 ca         1 LIC      -0.177000
      8 C12          4.0010    -1.1200    -3.3010 ca         1 LIC      -0.025600
      9 C11          4.9100     0.0300    -5.1950 ca         1 LIC      -0.085000
     10 C14          4.9010     1.2140    -4.4810 ca         1 LIC      -0.102000
     11 C9           3.9870     0.0660    -2.5890 ca         1 LIC      -0.117300
     12 C1           1.3480     0.0000     0.0000 c          1 LIC       0.560100
     13 O4           1.9560     0.0000     1.0530 o          1 LIC      -0.636100
     14 C2          -0.7010    -0.0960    -1.2100 ca         1 LIC      -0.165400
     15 C25         -1.3690    -1.3750    -3.1260 ca         1 LIC      -0.177000
     16 C31         -3.3960     0.8850    -4.9880 c3         1 LIC       0.214700
     17 C23         -1.4190     0.9930    -1.6850 ca         1 LIC      -0.051000
     18 C3          -0.6950     0.0960     1.2010 ca         1 LIC       0.455200
     19 C35         -2.0750    -0.1100     1.2390 ca         1 LIC      -0.480600
     20 C37         -2.7250    -0.0040     2.4530 ca         1 LIC       0.511200
     21 N39         -2.0240     0.2860     3.5390 nb         1 LIC      -0.737000
     22 C41         -0.7150     0.4770     3.4740 ca         1 LIC       0.739900
     23 N42         -0.0550     0.3790     2.3300 nb         1 LIC      -0.667000
     24 N36         -0.0190     0.7790     4.6310 nu         1 LIC      -0.470900
     25 C43         -0.7300     0.8850     5.9080 c3         1 LIC       0.140500
     26 C45         -0.8700    -0.5060     6.5300 c3         1 LIC      -0.023100
     27 C47          0.0570     1.7910     6.8570 c3         1 LIC       0.152800
     28 C53          0.1970     3.1820     6.2340 c3         1 LIC      -0.036600
     29 O52          1.3550     1.2360     7.0790 oh         1 LIC      -0.586800
     30 C51         -0.6860     1.9010     8.1900 c3         1 LIC      -0.036600
     31 H71          3.8980    -0.7560    -0.6280 h1         1 LIC       0.034200
     32 H72          3.7920     1.0080    -0.6900 h1         1 LIC       0.034200
     33 H15          4.4640    -2.0640    -5.1680 ha         1 LIC       0.116000
     34 H22         -0.1180    -2.1300    -1.5640 ha         1 LIC       0.118000
     35 H24         -2.6660     1.7490    -3.2500 ha         1 LIC       0.131000
     36 H11          5.2690     0.0170    -6.2170 ha         1 LIC       0.106000
     37 H14          5.2570     2.1270    -4.9430 ha         1 LIC       0.107000
     38 H25         -1.3530    -2.3000    -3.6900 ha         1 LIC       0.131000
     39 H311        -3.9570     0.8930    -5.9150 h1         1 LIC       0.005033
     40 H312        -2.6310     1.6510    -5.0220 h1         1 LIC       0.005033
     41 H313        -4.0650     1.0800    -4.1590 h1         1 LIC       0.005033
     42 H23         -1.4340     1.9190    -1.1230 ha         1 LIC       0.118000
     43 H35         -2.6240    -0.3470     0.3360 ha         1 LIC       0.134000
     44 H37         -3.7950    -0.1590     2.5170 h4         1 LIC      -0.024900
     45 HN36         0.9710     0.9240     4.5970 hn         1 LIC       0.319800
     46 H43         -1.7140     1.3070     5.7400 h1         1 LIC       0.058700
     47 H451        -0.4130    -1.2400     5.8780 hc         1 LIC       0.015367
     48 H452        -0.3760    -0.5210     7.4940 hc         1 LIC       0.015367
     49 H453        -1.9200    -0.7400     6.6580 hc         1 LIC       0.015367
     50 H531         0.9610     3.1580     5.4660 hc         1 LIC       0.015533
     51 H532         0.4770     3.8940     7.0010 hc         1 LIC       0.015533
     52 H533        -0.7480     3.4770     5.7950 hc         1 LIC       0.015533
     53 HO52         1.7980     1.7320     7.7470 ho         1 LIC       0.396000
     54 H511        -0.3400     2.7780     8.7250 hc         1 LIC       0.015533
     55 H512        -0.4940     1.0170     8.7850 hc         1 LIC       0.015533
     56 H513        -1.7500     1.9880     8.0040 hc         1 LIC       0.015533
     57 O30         -2.7670    -0.3800    -4.7730 os         1 LIC      -0.278900
     58 N5           2.0220    -0.0020    -1.1670 ns         1 LIC      -0.230900
     59 H13          4.4350     2.1600    -2.6190 ha         1 LIC       0.112000
     60 Cl16         3.4340    -2.5840    -2.5610 cl         1 LIC      -0.016400
     61 HN5          1.5220    -0.0400    -2.0330 hn         1 LIC       0.186500
@<TRIPOS>BOND
     1     1    12 1   
     2     1    14 1   
     3     1    18 1   
     4     2    11 1   
     5     2    31 1   
     6     2    32 1   
     7     2    58 1   
     8     3    10 ar  
     9     3    11 ar  
    10     3    59 1   
    11     4     8 ar  
    12     4     9 ar  
    13     4    33 1   
    14     5     7 ar  
    15     5    15 ar  
    16     5    57 1   
    17     6    14 ar  
    18     6    15 ar  
    19     6    34 1   
    20     7    17 ar  
    21     7    35 1   
    22     8    11 ar  
    23     8    60 1   
    24     9    10 ar  
    25     9    36 1   
    26    10    37 1   
    27    12    13 2   
    28    12    58 1   
    29    14    17 ar  
    30    15    38 1   
    31    16    39 1   
    32    16    40 1   
    33    16    41 1   
    34    16    57 1   
    35    17    42 1   
    36    18    19 ar  
    37    18    23 ar  
    38    19    20 ar  
    39    19    43 1   
    40    20    21 ar  
    41    20    44 1   
    42    21    22 ar  
    43    22    23 ar  
    44    22    24 1   
    45    24    25 1   
    46    24    45 1   
    47    25    26 1   
    48    25    27 1   
    49    25    46 1   
    50    26    47 1   
    51    26    48 1   
    52    26    49 1   
    53    27    28 1   
    54    27    29 1   
    55    27    30 1   
    56    28    50 1   
    57    28    51 1   
    58    28    52 1   
    59    29    53 1   
    60    30    54 1   
    61    30    55 1   
    62    30    56 1   
    63    58    61 1   
@<TRIPOS>SUBSTRUCTURE
     1 LIC         1 TEMP              0 ****  ****    0 ROOT
