@<TRIPOS>MOLECULE
molecule
   43    46     1     0     0
SMALL
bcc


@<TRIPOS>ATOM
      1 C5           0.0000     0.0000     0.0000 ca         1 LID       0.948900
      2 C8           0.6020     0.0000     4.3970 cc         1 LID       0.665700
      3 C10         -1.9060     0.0010     4.0710 c3         1 LID       0.046300
      4 N12          0.5970    -0.0000     5.7770 nu         1 LID      -0.712600
      5 C13          1.8010    -0.1120     6.4800 ca         1 LID       0.178600
      6 C15          0.0460     0.1370    -2.4110 ca         1 LID       0.081600
      7 C17          0.3900     1.2400    -4.5150 ca         1 LID      -0.176500
      8 C20          1.1260    -0.6990    -2.6750 ca         1 LID       0.156400
      9 C21          3.0120     0.0440     5.8180 ca         1 LID      -0.163000
     10 C22          4.1980    -0.0670     6.5150 ca         1 LID      -0.100000
     11 C24          2.9810    -0.4910     8.5350 ca         1 LID      -0.097000
     12 C16         -0.3230     1.1040    -3.3380 ca         1 LID       0.156400
     13 C18          1.4640     0.4080    -4.7750 ca         1 LID      -0.088000
     14 C19          1.8310    -0.5610    -3.8570 ca         1 LID      -0.176500
     15 F27          1.4850    -1.6440    -1.7800 f          1 LID      -0.123900
     16 N14         -0.6710    -0.0000    -1.2150 nu         1 LID      -0.761300
     17 N6           1.3260     0.0000     0.0000 nb         1 LID      -0.776000
     18 N4          -0.7050     0.0000     1.1210 nb         1 LID      -0.800000
     19 C3          -0.0950    -0.0050     2.2970 ca         1 LID       0.489800
     20 N7          -0.5160     0.0000     3.6060 na         1 LID      -0.277000
     21 C11         -2.3890     1.4430     4.2310 c3         1 LID      -0.120100
     22 C2           1.3140     0.0000     2.3390 ca         1 LID      -0.171200
     23 C1           2.0120     0.0000     1.1310 ca         1 LID       0.540200
     24 N9           1.6760    -0.0010     3.6480 nd         1 LID      -0.642100
     25 C23          4.1830    -0.3330     7.8720 ca         1 LID      -0.151000
     26 C25          1.7890    -0.3750     7.8450 ca         1 LID      -0.025600
     27 Cl26         0.2800    -0.5720     8.6780 cl         1 LID      -0.123400
     28 H101        -2.5280    -0.5100     3.3460 h1         1 LID       0.067700
     29 H102        -1.9680    -0.5090     5.0240 h1         1 LID       0.067700
     30 H12         -0.2630     0.1200     6.2740 hn         1 LID       0.464800
     31 H17          0.1040     1.9950    -5.2370 ha         1 LID       0.150500
     32 H21          3.0250     0.2520     4.7550 ha         1 LID       0.213000
     33 H22          5.1420     0.0560     5.9980 ha         1 LID       0.137000
     34 H24          2.9720    -0.6970     9.5980 ha         1 LID       0.144000
     35 H18          2.0190     0.5150    -5.6980 ha         1 LID       0.143000
     36 H19          2.6720    -1.2110    -4.0650 ha         1 LID       0.150500
     37 H14         -1.6620    -0.1400    -1.2390 hn         1 LID       0.473800
     38 H111        -2.9590     1.5330     5.1480 hc         1 LID       0.051367
     39 H112        -3.0170     1.7100     3.3890 hc         1 LID       0.051367
     40 H113        -1.5350     2.1080     4.2710 hc         1 LID       0.051367
     41 H1           3.0950     0.0000     1.1200 h4         1 LID       0.042100
     42 H23          5.1160    -0.4220     8.4150 ha         1 LID       0.135000
     43 F28         -1.3710     1.9180    -3.0850 f          1 LID      -0.123900
@<TRIPOS>BOND
     1     1    16 1
     2     1    17 ar
     3     1    18 ar
     4     2     4 1
     5     2    20 1
     6     2    24 2
     7     3    20 1
     8     3    21 1
     9     3    28 1
    10     3    29 1
    11     4     5 1
    12     4    30 1
    13     5     9 ar
    14     5    26 ar
    15     6     8 ar
    16     6    12 ar
    17     6    16 1
    18     7    12 ar
    19     7    13 ar
    20     7    31 1
    21     8    14 ar
    22     8    15 1
    23     9    10 ar
    24     9    32 1
    25    10    25 ar
    26    10    33 1
    27    11    25 ar
    28    11    26 ar
    29    11    34 1
    30    43    12 1
    31    13    14 ar
    32    13    35 1
    33    14    36 1
    34    16    37 1
    35    17    23 ar
    36    18    19 ar
    37    19    20 1
    38    19    22 ar
    39    21    38 1
    40    21    39 1
    41    21    40 1
    42    22    23 ar
    43    22    24 1
    44    23    41 1
    45    25    42 1
    46    26    27 1
@<TRIPOS>SUBSTRUCTURE
     1 LID         1 TEMP              0 ****  ****    0 ROOT
