@<TRIPOS>MOLECULE
molecule
   45    48     1     0     0
SMALL
bcc


@<TRIPOS>ATOM
      1 C5           0.0000     0.0000     0.0000 ca         1 LIE       0.885300
      2 C6           1.9940     0.0000     1.1430 ca         1 LIE       0.483800
      3 C7           4.4600     0.0010     0.5540 c3         1 LIE       0.058000
      4 C10          3.4010    -0.0140     2.8500 cc         1 LIE       0.676700
      5 N12          4.5720    -0.0160     3.5810 nu         1 LIE      -0.710600
      6 C13         -1.9840     0.0050    -0.9010 ca         1 LIE       0.023100
      7 C15         -2.6660     1.2050    -0.7480 ca         1 LIE       0.170900
      8 C17         -4.0180    -1.1960    -0.4710 ca         1 LIE      -0.179000
      9 C26          4.3980    -1.2450    -0.3330 c3         1 LIE      -0.110100
     10 C36          5.6800    -0.0810     5.7280 ca         1 LIE       0.076900
     11 C39          5.6320     0.0430     7.1040 ca         1 LIE      -0.140000
     12 C35          4.4360     0.3400     7.7320 ca         1 LIE      -0.134000
     13 C38          3.2870     0.5190     6.9850 ca         1 LIE      -0.115000
     14 C37          3.3280     0.4010     5.6090 ca         1 LIE      -0.148000
     15 C34          4.5260     0.1030     4.9750 ca         1 LIE       0.136600
     16 N11          2.1950    -0.0180     3.3600 nd         1 LIE      -0.647100
     17 C3           1.2800    -0.0130     2.3570 ca         1 LIE      -0.153200
     18 C1          -0.1130    -0.0140     2.3050 ca         1 LIE       0.534200
     19 N8           3.3280    -0.0070     1.4840 na         1 LIE      -0.273000
     20 C25          4.3950     1.2540    -0.3200 c3         1 LIE      -0.110100
     21 N2           1.3230     0.0000     0.0000 nb         1 LIE      -0.747000
     22 N4          -0.7050    -0.0070     1.1210 nb         1 LIE      -0.793000
     23 O9          -0.6550     0.0070    -1.1860 os         1 LIE      -0.283400
     24 F19         -2.0070     2.3770    -0.8820 f          1 LIE      -0.122900
     25 C18         -4.0180     1.1990    -0.4580 ca         1 LIE      -0.179000
     26 C14         -4.6920     0.0010    -0.3200 ca         1 LIE      -0.073000
     27 C16         -2.6650    -1.1980    -0.7680 ca         1 LIE       0.170900
     28 F20         -2.0070    -2.3680    -0.9160 f          1 LIE      -0.122900
     29 H7           5.3870    -0.0010     1.1140 h1         1 LIE       0.056700
     30 HN12         5.4510    -0.1260     3.1170 hn         1 LIE       0.465800
     31 H17         -4.5490    -2.1340    -0.3640 ha         1 LIE       0.153000
     32 H261         4.1050    -2.0990     0.2640 hc         1 LIE       0.055367
     33 H262         5.3730    -1.4260    -0.7690 hc         1 LIE       0.055367
     34 H263         3.6730    -1.0900    -1.1230 hc         1 LIE       0.055367
     35 H39          6.5320    -0.0960     7.6920 ha         1 LIE       0.146000
     36 H35          4.4010     0.4350     8.8100 ha         1 LIE       0.136000
     37 H38          2.3510     0.7510     7.4800 ha         1 LIE       0.138000
     38 H37          2.4260     0.5410     5.0260 ha         1 LIE       0.209000
     39 H1          -0.7000    -0.0200     3.2160 h4         1 LIE       0.044100
     40 H251         4.1060     2.1030     0.2870 hc         1 LIE       0.055367
     41 H252         5.3680     1.4390    -0.7590 hc         1 LIE       0.055367
     42 H253         3.6650     1.1080    -1.1070 hc         1 LIE       0.055367
     43 H18         -4.5490     2.1360    -0.3380 ha         1 LIE       0.153000
     44 H14         -5.7510    -0.0000    -0.0900 ha         1 LIE       0.144000
     45 F40          6.8490    -0.3720     5.1160 f          1 LIE      -0.151900
@<TRIPOS>BOND
     1     1    21 ar
     2     1    22 ar
     3     1    23 1
     4     2    17 ar
     5     2    19 1
     6     2    21 ar
     7     3     9 1
     8     3    19 1
     9     3    20 1
    10     3    29 1
    11     4     5 1
    12     4    16 2
    13     4    19 1
    14     5    15 1
    15     5    30 1
    16     6     7 ar
    17     6    23 1
    18     6    27 ar
    19     7    24 1
    20     7    25 ar
    21     8    26 ar
    22     8    27 ar
    23     8    31 1
    24     9    32 1
    25     9    33 1
    26     9    34 1
    27    45    10 1
    28    10    11 ar
    29    10    15 ar
    30    11    12 ar
    31    11    35 1
    32    12    13 ar
    33    12    36 1
    34    13    14 ar
    35    13    37 1
    36    14    15 ar
    37    14    38 1
    38    16    17 1
    39    17    18 ar
    40    18    22 ar
    41    18    39 1
    42    20    40 1
    43    20    41 1
    44    20    42 1
    45    25    26 ar
    46    25    43 1
    47    26    44 1
    48    27    28 1
@<TRIPOS>SUBSTRUCTURE
     1 LIE         1 TEMP              0 ****  ****    0 ROOT
