@<TRIPOS>MOLECULE
LIF
   58    62     1     0     0
SMALL
bcc


@<TRIPOS>ATOM
      1 F1          0.9740    0.6100   -0.4750 f         1 LIF     -0.233633
      2 C2          2.3070    0.2820   -0.5130 c3        1 LIF      0.691200
      3 F3          2.7370    0.4570    0.7790 f         1 LIF     -0.233633
      4 F4          2.8880    1.3180   -1.2030 f         1 LIF     -0.233633
      5 C5          2.6050   -1.1010   -1.0870 ca        1 LIF     -0.160300
      6 C6          1.6810   -2.1260   -0.8980 ca        1 LIF     -0.069000
      7 C10         3.7980   -1.3140   -1.7770 ca        1 LIF     -0.079000
      8 C9          4.0780   -2.5760   -2.2880 ca        1 LIF     -0.145000
      9 C8          3.1680   -3.6290   -2.1010 ca        1 LIF      0.100900
     10 F11         3.4620   -4.8520   -2.6070 f         1 LIF     -0.139900
     11 C7          1.9400   -3.4170   -1.4010 ca        1 LIF      0.028600
     12 N12         1.0080   -4.4660   -1.2970 n         1 LIF     -0.458100
     13 C13         0.2030   -4.6480   -0.1430 c         1 LIF      0.770100
     14 O14         0.1090   -3.7580    0.7280 o         1 LIF     -0.602100
     15 N15        -0.4810   -5.8780   -0.0400 n         1 LIF     -0.458100
     16 C16        -1.5070   -6.1060    0.8990 ca        1 LIF      0.062600
     17 C17        -2.5540   -6.9960    0.5590 ca        1 LIF     -0.162000
     18 C18        -3.5460   -7.3010    1.4820 ca        1 LIF     -0.096000
     19 C19        -3.5360   -6.7280    2.7610 ca        1 LIF     -0.059800
     20 C20        -2.5030   -5.8450    3.0990 ca        1 LIF     -0.096000
     21 C21        -1.4970   -5.5350    2.1890 ca        1 LIF     -0.162000
     22 C22        -4.5700   -7.0610    3.7200 cc        1 LIF     -0.046400
     23 C23        -5.7710   -6.4130    3.9600 cd        1 LIF      0.112900
     24 C32        -6.4160   -5.2430    3.4130 ca        1 LIF     -0.084800
     25 C33        -7.7930   -5.0340    3.6160 ca        1 LIF     -0.066500
     26 C34        -8.4230   -3.9150    3.0930 ca        1 LIF     -0.186500
     27 C35        -7.6700   -2.9810    2.3540 ca        1 LIF      0.141100
     28 C36        -6.2990   -3.1740    2.1480 ca        1 LIF     -0.186500
     29 C37        -5.6810   -4.3030    2.6800 ca        1 LIF     -0.066500
     30 O38        -8.3890   -1.9060    1.8750 os        1 LIF     -0.323900
     31 C39        -7.6530   -0.9290    1.1470 c3        1 LIF      0.111700
     32 O24        -6.5180   -7.0760    4.9720 os        1 LIF     -0.300400
     33 C25        -5.7440   -8.1660    5.3680 ca        1 LIF      0.617600
     34 N26        -6.1000   -9.0580    6.3250 nb        1 LIF     -0.709000
     35 C30        -4.5220   -8.1960    4.6160 ca        1 LIF     -0.393400
     36 C29        -3.6150   -9.2590    4.9080 ca        1 LIF      0.739200
     37 N31        -2.4470   -9.3970    4.1950 nh        1 LIF     -0.954500
     38 N28        -3.9490  -10.1730    5.8890 nb        1 LIF     -0.782000
     39 C27        -5.1440  -10.0110    6.5080 ca        1 LIF      0.682900
     40 H6          0.7460   -1.9220   -0.3430 ha        1 LIF      0.192000
     41 H10         4.5110   -0.4860   -1.9210 ha        1 LIF      0.161000
     42 H9          5.0130   -2.7660   -2.8360 ha        1 LIF      0.161000
     43 H12         1.2440   -5.2750   -1.8330 hn        1 LIF      0.319500
     44 H15        -0.5360   -6.4490   -0.8560 hn        1 LIF      0.313500
     45 H17        -2.5950   -7.4590   -0.4390 ha        1 LIF      0.154500
     46 H18        -4.3540   -7.9950    1.2020 ha        1 LIF      0.150000
     47 H20        -2.4850   -5.3840    4.0990 ha        1 LIF      0.150000
     48 H21        -0.7020   -4.8280    2.4820 ha        1 LIF      0.154500
     49 H33        -8.3730   -5.7680    4.2000 ha        1 LIF      0.150500
     50 H34        -9.4980   -3.7440    3.2450 ha        1 LIF      0.148500
     51 H36        -5.7030   -2.4490    1.5770 ha        1 LIF      0.148500
     52 H37        -4.6000   -4.4540    2.5240 ha        1 LIF      0.150500
     53 H391       -8.4280   -0.1670    0.8800 h1        1 LIF      0.046700
     54 H392       -6.8590   -0.4750    1.7880 h1        1 LIF      0.046700
     55 H393       -7.2060   -1.3770    0.2270 h1        1 LIF      0.046700
     56 H311       -1.7640  -10.0510    4.4890 hn        1 LIF      0.440300
     57 H312       -2.1670   -8.6350    3.6250 hn        1 LIF      0.440300
     58 H27        -5.3770  -10.7710    7.2860 h5        1 LIF      0.057100
@<TRIPOS>BOND
     1    1    2 1   
     2    2    3 1   
     3    2    4 1   
     4    2    5 1   
     5    5    6 ar  
     6    5    7 ar  
     7    6   11 ar  
     8    6   40 1   
     9    7    8 ar  
    10    7   41 1   
    11    8    9 ar  
    12    8   42 1   
    13    9   10 1   
    14    9   11 ar  
    15   11   12 1   
    16   12   13 1   
    17   12   43 1   
    18   13   14 2   
    19   13   15 1   
    20   15   16 1   
    21   15   44 1   
    22   16   17 ar  
    23   16   21 ar  
    24   17   18 ar  
    25   17   45 1   
    26   18   19 ar  
    27   18   46 1   
    28   19   20 ar  
    29   19   22 1   
    30   20   21 ar  
    31   20   47 1   
    32   21   48 1   
    33   22   23 2   
    34   22   35 1   
    35   23   24 1   
    36   23   32 1   
    37   24   25 ar  
    38   24   29 ar  
    39   25   26 ar  
    40   25   49 1   
    41   26   27 ar  
    42   26   50 1   
    43   27   28 ar  
    44   27   30 1   
    45   28   29 ar  
    46   28   51 1   
    47   29   52 1   
    48   30   31 1   
    49   31   53 1   
    50   31   54 1   
    51   31   55 1   
    52   32   33 1   
    53   33   34 ar  
    54   33   35 ar  
    55   34   39 ar  
    56   35   36 ar  
    57   36   37 1   
    58   36   38 ar  
    59   37   56 1   
    60   37   57 1   
    61   38   39 ar  
    62   39   58 1   
@<TRIPOS>SUBSTRUCTURE
     1 LIF         1 TEMP              0 ****  ****    0 ROOT
