@<TRIPOS>MOLECULE
molecule
   29    32     1     0     0
SMALL
bcc


@<TRIPOS>ATOM
      1 N1           0.0000     0.0000     0.0000 na         1 LIG      -0.033600
      2 N3           1.4000     0.0000     0.0000 nc         1 LIG      -0.477800
      3 C4           1.8190     0.0000     1.2520 cd         1 LIG       0.382800
      4 C5           0.6900     0.0010     2.0870 cd         1 LIG      -0.294600
      5 C6          -0.4200     0.0010     1.2980 cc         1 LIG      -0.015300
      6 C7          -1.8240     0.0010     1.7640 ca         1 LIG       0.005000
      7 C8          -2.6950    -1.0380     1.4210 ca         1 LIG      -0.237300
      8 C10         -3.9970    -0.9980     1.8760 ca         1 LIG       0.420700
      9 N12         -4.4220     0.0020     2.6240 nb         1 LIG      -0.686000
     10 C13         -3.6340     1.0020     2.9690 ca         1 LIG       0.420700
     11 C15         -2.3160     1.0380     2.5630 ca         1 LIG      -0.237300
     12 C17          1.1840     0.0030     3.5110 c3         1 LIG       0.054200
     13 C20          2.6910     0.0030     3.4330 ca         1 LIG      -0.077300
     14 C21          3.0460     0.0010     2.0880 ca         1 LIG      -0.113500
     15 C22          4.3960     0.0010     1.7360 ca         1 LIG      -0.094000
     16 C24          5.3640     0.0040     2.7180 ca         1 LIG      -0.134000
     17 C26          5.0020     0.0040     4.0520 ca         1 LIG      -0.117000
     18 C28          3.6660     0.0040     4.4080 ca         1 LIG      -0.116000
     19 HN1         -0.5880     0.0410    -0.8090 hn         1 LIG       0.337700
     20 HC8         -2.3530    -1.8630     0.8080 ha         1 LIG       0.146000
     21 HC10        -4.6790    -1.7990     1.6160 h4         1 LIG       0.027100
     22 HC13        -4.0250     1.8010     3.5860 h4         1 LIG       0.027100
     23 HC15        -1.6750     1.8620     2.8510 ha         1 LIG       0.146000
     24 H171         0.8390    -0.8860     4.0250 hc         1 LIG       0.064700
     25 H172         0.8390     0.8940     4.0220 hc         1 LIG       0.064700
     26 HC22         4.6840     0.0010     0.6910 ha         1 LIG       0.140000
     27 HC24         6.4120     0.0040     2.4430 ha         1 LIG       0.133000
     28 HC26         5.7670     0.0060     4.8200 ha         1 LIG       0.133000
     29 HC28         3.3850     0.0040     5.4550 ha         1 LIG       0.132000
@<TRIPOS>BOND
     1     1     2 1
     2     1     5 1
     3     1    19 1
     4     2     3 2
     5     3     4 1
     6     3    14 1
     7     4     5 2
     8     4    12 1
     9     5     6 1
    10     6     7 ar
    11     6    11 ar
    12     7     8 ar
    13     7    20 1
    14     8     9 ar
    15     8    21 1
    16     9    10 ar
    17    10    11 ar
    18    10    22 1
    19    11    23 1
    20    12    13 1
    21    12    24 1
    22    12    25 1
    23    13    14 ar
    24    13    18 ar
    25    14    15 ar
    26    15    16 ar
    27    15    26 1
    28    16    17 ar
    29    16    27 1
    30    17    18 ar
    31    17    28 1
    32    18    29 1
@<TRIPOS>SUBSTRUCTURE
     1 LIG         1 TEMP              0 ****  ****    0 ROOT
