@<TRIPOS>MOLECULE
LIG
   29    32     1     0     0
SMALL
bcc


@<TRIPOS>ATOM
      1 N1          0.0600   -0.5580    0.1650 na        1 LIG     -0.030600
      2 N3          1.3920   -0.5640    0.0750 nc        1 LIG     -0.453800
      3 C4          1.8380   -0.2560    1.3120 cd        1 LIG      0.336800
      4 C5          0.7040   -0.0270    2.2350 cd        1 LIG     -0.237600
      5 C6         -0.4320   -0.2280    1.4550 cc        1 LIG     -0.035300
      6 C7         -1.8350   -0.1490    1.7970 ca        1 LIG      0.029000
      7 C8         -2.8450   -0.6600    0.9650 ca        1 LIG     -0.239300
      8 C10        -4.1830   -0.5400    1.3790 ca        1 LIG      0.399200
      9 N12        -4.5600    0.0380    2.5350 nb        1 LIG     -0.660000
     10 C13        -3.5830    0.5210    3.3270 ca        1 LIG      0.399200
     11 C15        -2.2170    0.4530    3.0070 ca        1 LIG     -0.239300
     12 C17         1.2140    0.3050    3.5870 c3        1 LIG      0.047200
     13 C20         2.7150    0.2560    3.4020 ca        1 LIG     -0.083300
     14 C21         3.0710   -0.0760    2.0530 ca        1 LIG     -0.111500
     15 C22         4.3980   -0.1720    1.6730 ca        1 LIG     -0.095000
     16 C24         5.3880    0.0640    2.6390 ca        1 LIG     -0.133000
     17 C26         5.0460    0.3860    3.9480 ca        1 LIG     -0.124000
     18 C28         3.7020    0.4850    4.3410 ca        1 LIG     -0.120000
     19 HN1        -0.4930   -0.7050   -0.6450 hn        1 LIG      0.321700
     20 HC8        -2.6170   -1.1560    0.0140 ha        1 LIG      0.144000
     21 HC10       -5.0020   -0.9310    0.7490 h4        1 LIG      0.025600
     22 HC13       -3.9170    0.9890    4.2710 h4        1 LIG      0.025600
     23 HC15       -1.4590    0.8630    3.6900 ha        1 LIG      0.144000
     24 H171        0.8870    1.3240    3.9170 hc        1 LIG      0.071200
     25 H172        0.8800   -0.4410    4.3530 hc        1 LIG      0.071200
     26 HC22        4.6730   -0.4260    0.6400 ha        1 LIG      0.146000
     27 HC24        6.4470   -0.0090    2.3520 ha        1 LIG      0.134000
     28 HC26        5.8370    0.5670    4.6920 ha        1 LIG      0.132000
     29 HC28        3.4470    0.7400    5.3790 ha        1 LIG      0.135000
@<TRIPOS>BOND
     1    1    2 1   
     2    1    5 1   
     3    1   19 1   
     4    2    3 2   
     5    3    4 1   
     6    3   14 1   
     7    4    5 2   
     8    4   12 1   
     9    5    6 1   
    10    6    7 ar  
    11    6   11 ar  
    12    7    8 ar  
    13    7   20 1   
    14    8    9 ar  
    15    8   21 1   
    16    9   10 ar  
    17   10   11 ar  
    18   10   22 1   
    19   11   23 1   
    20   12   13 1   
    21   12   24 1   
    22   12   25 1   
    23   13   14 ar  
    24   13   18 ar  
    25   14   15 ar  
    26   15   16 ar  
    27   15   26 1   
    28   16   17 ar  
    29   16   27 1   
    30   17   18 ar  
    31   17   28 1   
    32   18   29 1   
@<TRIPOS>SUBSTRUCTURE
     1 LIG         1 TEMP              0 ****  ****    0 ROOT
