@<TRIPOS>MOLECULE
molecule
   42    45     1     0     0
SMALL
bcc


@<TRIPOS>ATOM
      1 C4A          0.0000     0.0000     0.0000 ca         1 LIH      -0.405600
      2 C4           1.4160     0.0000     0.0000 ca         1 LIH       0.794200
      3 C2           1.3700     0.0040     2.3130 ca         1 LIH       0.976900
      4 C8A         -0.6770     0.0090     1.2440 ca         1 LIH       0.765300
      5 C5          -0.7450     0.0060    -1.1850 ca         1 LIH       0.043700
      6 C6          -2.1110     0.0100    -1.0880 ca         1 LIH      -0.297600
      7 C7          -2.7150     0.0130     0.1640 ca         1 LIH       0.497200
      8 C5A         -0.0640     0.0010    -2.5290 c3         1 LIH      -0.053800
      9 C5'         -3.6460     1.5900    -4.1090 ca         1 LIH       0.217600
     10 C6'         -4.4030     0.5910    -4.6860 ca         1 LIH      -0.237000
     11 C7'         -5.1300     0.8340    -5.8470 ca         1 LIH      -0.065000
     12 C8'         -5.1170     2.0580    -6.4440 ca         1 LIH      -0.228300
     13 C9          -2.9570     0.0100    -2.3330 c3         1 LIH       0.294100
     14 C4'         -2.8580     3.9130    -4.1560 ca         1 LIH      -0.071000
     15 C4X         -3.6200     2.8670    -4.7040 ca         1 LIH      -0.203300
     16 C8X         -4.3600     3.1020    -5.8900 ca         1 LIH       0.457600
     17 C2'         -3.6280     5.2910    -5.9490 ca         1 LIH       0.439200
     18 C3'         -2.8750     5.1230    -4.7900 ca         1 LIH      -0.272300
     19 N3           2.0440     0.0000     1.1680 nb         1 LIH      -0.823000
     20 N1           0.0530     0.0080     2.3690 nb         1 LIH      -0.798000
     21 N8          -2.0100     0.0120     1.2730 nb         1 LIH      -0.690000
     22 N1'         -4.3330     4.3110    -6.4620 nb         1 LIH      -0.685000
     23 N10         -2.9200     1.3390    -2.9490 nu         1 LIH      -0.820600
     24 N4           2.1230    -0.0040    -1.1830 nv         1 LIH      -1.084500
     25 N2           2.0820     0.0050     3.4980 nv         1 LIH      -0.981500
     26 H71         -3.7970     0.0160     0.2270 h4         1 LIH       0.031100
     27 H5A1         0.5050     0.9150    -2.6490 hc         1 LIH       0.054367
     28 H5A2         0.6030    -0.8500    -2.5930 hc         1 LIH       0.054367
     29 H5A3        -0.8100    -0.0650    -3.3120 hc         1 LIH       0.054367
     30 H6'1        -4.4310    -0.3920    -4.2320 ha         1 LIH       0.131000
     31 H7'1        -5.7180     0.0350    -6.2840 ha         1 LIH       0.131000
     32 H8'1        -5.6900     2.2260    -7.3470 ha         1 LIH       0.147000
     33 H91         -3.9790    -0.2400    -2.0750 h1         1 LIH       0.048700
     34 H92         -2.5710    -0.7220    -3.0320 h1         1 LIH       0.048700
     35 H4'1        -2.2780     3.7650    -3.2530 ha         1 LIH       0.128000
     36 H2'1        -3.6320     6.2570    -6.4410 h4         1 LIH       0.021100
     37 H3'1        -2.3030     5.9520    -4.3910 ha         1 LIH       0.135000
     38 H101        -2.3900     2.0730    -2.5220 hn         1 LIH       0.442800
     39 H41          2.4180     0.8600    -1.5910 hn         1 LIH       0.446300
     40 H42          2.3970    -0.8720    -1.5980 hn         1 LIH       0.446300
     41 H21          1.5960     0.0100     4.3730 hn         1 LIH       0.453800
     42 H22          3.0820     0.0040     3.4810 hn         1 LIH       0.453800
@<TRIPOS>BOND
     1     1     2 ar
     2     1     4 ar
     3     1     5 ar
     4     2    19 ar
     5     2    24 1
     6     3    19 ar
     7     3    20 ar
     8     3    25 1
     9     4    20 ar
    10     4    21 ar
    11     5     6 ar
    12     5     8 1
    13     6     7 ar
    14     6    13 1
    15     7    21 ar
    16     7    26 1
    17     8    27 1
    18     8    28 1
    19     8    29 1
    20     9    10 ar
    21     9    15 ar
    22     9    23 1
    23    10    11 ar
    24    10    30 1
    25    11    12 ar
    26    11    31 1
    27    12    16 ar
    28    12    32 1
    29    13    23 1
    30    13    33 1
    31    13    34 1
    32    14    15 ar
    33    14    18 ar
    34    14    35 1
    35    15    16 ar
    36    16    22 ar
    37    17    18 ar
    38    17    22 ar
    39    17    36 1
    40    18    37 1
    41    23    38 1
    42    24    39 1
    43    24    40 1
    44    25    41 1
    45    25    42 1
@<TRIPOS>SUBSTRUCTURE
     1 LIH         1 TEMP              0 ****  ****    0 ROOT
