@<TRIPOS>MOLECULE
LII
   44    46     1     0     0
SMALL
bcc


@<TRIPOS>ATOM
      1 C4A          0.0000     0.0000     0.0000 ca         1 LII      -0.330600
      2 C4           1.4170     0.0000     0.0000 ca         1 LII       0.569200
      3 C2           1.3710     0.0010     2.3130 ca         1 LII       0.722900
      4 C8A         -0.6780     0.0020     1.2450 ca         1 LII       0.619300
      5 C5          -0.7400    -0.0060    -1.1850 ca         1 LII      -0.003300
      6 C6          -2.1320     0.0000    -1.0840 ca         1 LII      -0.191100
      7 C7          -2.7310     0.0010     0.1860 ca         1 LII       0.448200
      8 C5A         -0.0570    -0.0140    -2.5280 c3         1 LII       0.040200
      9 C9          -2.9650    -0.0010    -2.2990 ce         1 LII      -0.093200
     10 C1'         -4.3770     1.7010    -1.2690 ca         1 LII      -0.071800
     11 C2'         -5.6950     1.8820    -0.8290 ca         1 LII       0.105100
     12 C3'         -5.9640     2.7870     0.1860 ca         1 LII      -0.175000
     13 C4'         -4.9360     3.5090     0.7630 ca         1 LII      -0.171000
     14 C5'         -3.6270     3.3340     0.3310 ca         1 LII       0.106100
     15 C6'         -3.3440     2.4380    -0.6850 ca         1 LII      -0.113000
     16 C10         -4.0830     0.7420    -2.3480 cf         1 LII      -0.050200
     17 C2X         -7.9110     1.5780    -0.7400 c3         1 LII       0.214700
     18 C5X         -3.2230     4.8780     1.9010 c3         1 LII       0.215700
     19 N3           2.0460     0.0000     1.1670 nb         1 LII      -0.651000
     20 N1           0.0530     0.0020     2.3690 nb         1 LII      -0.597000
     21 N8          -2.0120     0.0020     1.2830 nb         1 LII      -0.564000
     22 N4           2.1230    -0.0030    -1.1820 nv         1 LII      -0.666500
     23 N16          2.0830     0.0010     3.4980 nv         1 LII      -0.641500
     24 O2'         -6.7060     1.1740    -1.3950 os         1 LII      -0.279900
     25 O5'         -2.6230     4.0480     0.9040 os         1 LII      -0.279900
     26 H71         -3.8120     0.0060     0.2620 h4         1 LII      -0.000900
     27 H51          0.5760     0.8610    -2.6160 hc         1 LII       0.020700
     28 H52          0.5470    -0.9080    -2.6210 hc         1 LII       0.020700
     29 H53         -0.8040     0.0010    -3.3130 hc         1 LII       0.020700
     30 H91         -2.7520    -0.7050    -3.0950 ha         1 LII       0.114000
     31 H3'1        -6.9820     2.9280     0.5280 ha         1 LII       0.132000
     32 H4'1        -5.1520     4.2140     1.5570 ha         1 LII       0.133000
     33 H6'1        -2.3230     2.3030    -1.0200 ha         1 LII       0.133000
     34 H101        -4.6940     0.7370    -3.2430 ha         1 LII       0.114000
     35 H2A1        -8.7500     1.0380    -1.1630 h1         1 LII       0.002700
     36 H2A2        -7.8380     1.3610     0.3180 h1         1 LII       0.002700
     37 H2A3        -8.0590     2.6420    -0.8810 h1         1 LII       0.002700
     38 H5'1        -3.7210     4.2580     2.6360 h1         1 LII       0.002367
     39 H5'2        -3.9460     5.5380     1.4360 h1         1 LII       0.002367
     40 H5'3        -2.4560     5.4690     2.3880 h1         1 LII       0.002367
     41 H41          2.4100     0.8630    -1.5950 hn         1 LII       0.287300
     42 H42          2.4070    -0.8700    -1.5930 hn         1 LII       0.287300
     43 H161         2.3450     0.8680     3.9240 hn         1 LII       0.279800
     44 H162         2.3350    -0.8660     3.9300 hn         1 LII       0.279800
@<TRIPOS>BOND
     1     1     2 ar  
     2     1     4 ar  
     3     1     5 ar  
     4     2    19 ar  
     5     2    22 1   
     6     3    19 ar  
     7     3    20 ar  
     8     3    23 1   
     9     4    20 ar  
    10     4    21 ar  
    11     5     6 ar  
    12     5     8 1   
    13     6     7 ar  
    14     6     9 1   
    15     7    21 ar  
    16     7    26 1   
    17     8    27 1   
    18     8    28 1   
    19     8    29 1   
    20     9    16 2   
    21     9    30 1   
    22    10    11 ar  
    23    10    15 ar  
    24    10    16 1   
    25    11    12 ar  
    26    11    24 1   
    27    12    13 ar  
    28    12    31 1   
    29    13    14 ar  
    30    13    32 1   
    31    14    15 ar  
    32    14    25 1   
    33    15    33 1   
    34    16    34 1   
    35    17    24 1   
    36    17    35 1   
    37    17    36 1   
    38    17    37 1   
    39    18    25 1   
    40    18    38 1   
    41    18    39 1   
    42    18    40 1   
    43    22    41 1   
    44    22    42 1   
    45    23    43 1   
    46    23    44 1   
@<TRIPOS>SUBSTRUCTURE
     1 LII         1 TEMP              0 ****  ****    0 ROOT
