@<TRIPOS>MOLECULE
molecule
   44    46     1     0     0
SMALL
bcc


@<TRIPOS>ATOM
      1 C4A          0.0000     0.0000     0.0000 ca         1 LII      -0.368600
      2 C4           1.4170     0.0000     0.0000 ca         1 LII       0.766200
      3 C2           1.3710     0.0010     2.3130 ca         1 LII       0.967900
      4 C8A         -0.6780     0.0020     1.2450 ca         1 LII       0.733300
      5 C5          -0.7400    -0.0060    -1.1850 ca         1 LII       0.016700
      6 C6          -2.1320     0.0000    -1.0840 ca         1 LII      -0.267100
      7 C7          -2.7310     0.0010     0.1860 ca         1 LII       0.468200
      8 C5A         -0.0570    -0.0140    -2.5280 c3         1 LII      -0.060800
      9 C9          -2.9650    -0.0010    -2.2990 ce         1 LII      -0.277200
     10 C1'         -4.3770     1.7010    -1.2690 ca         1 LII      -0.165800
     11 C2'         -5.6950     1.8820    -0.8290 ca         1 LII       0.120100
     12 C3'         -5.9640     2.7870     0.1860 ca         1 LII      -0.200000
     13 C4'         -4.9360     3.5090     0.7630 ca         1 LII      -0.143000
     14 C5'         -3.6270     3.3340     0.3310 ca         1 LII       0.090100
     15 C6'         -3.3440     2.4380    -0.6850 ca         1 LII      -0.128000
     16 C10         -4.0830     0.7420    -2.3480 cf         1 LII      -0.182200
     17 C2X         -7.9110     1.5780    -0.7400 c3         1 LII       0.099700
     18 C5X         -3.2230     4.8780     1.9010 c3         1 LII       0.103700
     19 N3           2.0460     0.0000     1.1670 nb         1 LII      -0.783000
     20 N1           0.0530     0.0020     2.3690 nb         1 LII      -0.730000
     21 N8          -2.0120     0.0020     1.2830 nb         1 LII      -0.673000
     22 N4           2.1230    -0.0030    -1.1820 nv         1 LII      -1.082500
     23 N16          2.0830     0.0010     3.4980 nv         1 LII      -1.059500
     24 O2'         -6.7060     1.1740    -1.3950 os         1 LII      -0.267900
     25 O5'         -2.6230     4.0480     0.9040 os         1 LII      -0.291900
     26 H71         -3.8120     0.0060     0.2620 h4         1 LII       0.030100
     27 H51          0.4900     0.9120    -2.6610 hc         1 LII       0.064033
     28 H52          0.6300    -0.8490    -2.5790 hc         1 LII       0.064033
     29 H53         -0.8000    -0.1090    -3.3100 hc         1 LII       0.064033
     30 H91         -2.2200     0.7700    -2.1450 ha         1 LII       0.280000
     31 H3'1        -6.9820     2.9280     0.5280 ha         1 LII       0.153000
     32 H4'1        -5.1520     4.2140     1.5570 ha         1 LII       0.152000
     33 H6'1        -2.3230     2.3030    -1.0200 ha         1 LII       0.150000
     34 H101        -4.5810     0.4150    -1.4430 ha         1 LII       0.283000
     35 H2A1        -8.7500     1.0400    -1.1650 h1         1 LII       0.048700
     36 H2A2        -8.0580     2.6430    -0.8780 h1         1 LII       0.048700
     37 H2A3        -7.8390     1.3580     0.3180 h1         1 LII       0.048700
     38 H5'1        -2.4560     5.4690     2.3880 h1         1 LII       0.046033
     39 H5'2        -3.7220     4.2580     2.6360 h1         1 LII       0.046033
     40 H5'3        -3.9450     5.5380     1.4360 h1         1 LII       0.046033
     41 H41          2.3400     0.8620    -1.6370 hn         1 LII       0.447300
     42 H42          2.4740    -0.8640    -1.5530 hn         1 LII       0.447300
     43 H161         2.3090     0.8670     3.9460 hn         1 LII       0.447800
     44 H162         2.3710    -0.8650     3.9080 hn         1 LII       0.447800
@<TRIPOS>BOND
     1     1     2 ar
     2     1     4 ar
     3     1     5 ar
     4     2    19 ar
     5     2    22 1
     6     3    19 ar
     7     3    20 ar
     8     3    23 1
     9     4    20 ar
    10     4    21 ar
    11     5     6 ar
    12     5     8 1
    13     6     7 ar
    14     6     9 1
    15     7    21 ar
    16     7    26 1
    17     8    27 1
    18     8    28 1
    19     8    29 1
    20     9    16 2
    21     9    30 1
    22    10    11 ar
    23    10    15 ar
    24    10    16 1
    25    11    12 ar
    26    11    24 1
    27    12    13 ar
    28    12    31 1
    29    13    14 ar
    30    13    32 1
    31    14    15 ar
    32    14    25 1
    33    15    33 1
    34    16    34 1
    35    17    24 1
    36    17    35 1
    37    17    36 1
    38    17    37 1
    39    18    25 1
    40    18    38 1
    41    18    39 1
    42    18    40 1
    43    22    41 1
    44    22    42 1
    45    23    43 1
    46    23    44 1
@<TRIPOS>SUBSTRUCTURE
     1 LII         1 TEMP              0 ****  ****    0 ROOT
