@<TRIPOS>MOLECULE
molecule
   96    98     1     0     0
SMALL
bcc


@<TRIPOS>ATOM
      1 C4           0.0000     0.0000     0.0000 c3         1 LIJ      -0.087100
      2 C5           1.5300     0.0000     0.0000 c3         1 LIJ      -0.115900
      3 C6           2.0410     0.0000     1.4420 c3         1 LIJ      -0.057900
      4 C7           3.5640     0.1380     1.4430 c3         1 LIJ      -0.181900
      5 C10          4.2130    -3.9720     1.4860 c3         1 LIJ       0.089700
      6 N12          2.2750    -5.1660     2.4540 ns         1 LIJ      -0.575900
      7 C13          1.6920    -6.1810     3.3350 c3         1 LIJ       0.118700
      8 C15          2.9110    -5.3230     5.3170 ca         1 LIJ      -0.069300
      9 C17          4.8310    -6.0370     6.5550 ca         1 LIJ      -0.121000
     10 C20          3.4950    -4.0850     5.1250 ca         1 LIJ      -0.121000
     11 C21          0.3150    -6.5870     2.8050 c3         1 LIJ       0.136100
     12 C22         -0.2400    -7.7340     3.6510 c3         1 LIJ       0.125800
     13 C24         -1.9820    -9.2980     3.9260 c3         1 LIJ       0.194100
     14 C26         -4.4810    -9.2890     3.8120 ca         1 LIJ      -0.164000
     15 C28         -5.6720   -10.8090     2.3840 ca         1 LIJ      -0.143000
     16 C1           6.0120     0.9640     4.2960 c3         1 LIJ      -0.087100
     17 C2           5.5490     0.6570     2.8700 c3         1 LIJ      -0.115900
     18 C3           4.0600     0.3050     2.8810 c3         1 LIJ      -0.057900
     19 S8           4.3070    -1.3490     0.7170 s6         1 LIJ       1.126000
     20 O8B          5.7210    -1.2580     0.8240 o          1 LIJ      -0.602300
     21 O8A          3.7130    -1.5900    -0.5510 o          1 LIJ      -0.602300
     22 C9           3.7050    -2.5880     1.8960 c3         1 LIJ      -0.255600
     23 C11          3.6130    -5.0160     2.3920 c          1 LIJ       0.655100
     24 O11          4.3340    -5.7220     3.0660 o          1 LIJ      -0.581100
     25 C14          1.5460    -5.6090     4.7470 c3         1 LIJ      -0.052100
     26 C16          3.5770    -6.2970     6.0360 ca         1 LIJ      -0.121000
     27 C18          5.4160    -4.7990     6.3620 ca         1 LIJ      -0.123000
     28 C19          4.7470    -3.8230     5.6480 ca         1 LIJ      -0.121000
     29 O21         -0.5720    -5.4690     2.8760 oh         1 LIJ      -0.598800
     30 N23         -1.5050    -8.2040     3.0700 n7         1 LIJ      -0.793200
     31 C25         -3.2840    -9.8290     3.3840 ca         1 LIJ      -0.064300
     32 C27         -5.6800    -9.7750     3.3080 ca         1 LIJ       0.105100
     33 O27         -6.8580    -9.2420     3.7250 os         1 LIJ      -0.313900
     34 C29         -4.4720   -11.3490     1.9630 ca         1 LIJ      -0.107000
     35 C30         -3.2790   -10.8600     2.4620 ca         1 LIJ      -0.148000
     36 C31         -6.7040    -7.8220     3.6910 c3         1 LIJ       0.111700
     37 N40          5.6730    -4.0090     1.5990 ns         1 LIJ      -0.563900
     38 C41          6.4380    -3.5680     0.5810 c          1 LIJ       0.779100
     39 O42          5.9180    -3.1410    -0.4300 o          1 LIJ      -0.627000
     40 O43          7.7800    -3.6010     0.6850 os         1 LIJ      -0.431900
     41 C44          8.6060    -3.1270    -0.4130 c3         1 LIJ       0.225700
     42 C45         10.0600    -3.2720    -0.0460 ca         1 LIJ      -0.100300
     43 C46         10.7200    -2.2350     0.5870 ca         1 LIJ      -0.101000
     44 C47         12.0530    -2.3690     0.9260 ca         1 LIJ      -0.135000
     45 C48         12.7280    -3.5380     0.6250 ca         1 LIJ      -0.118000
     46 C49         12.0700    -4.5720    -0.0120 ca         1 LIJ      -0.135000
     47 C50         10.7360    -4.4390    -0.3480 ca         1 LIJ      -0.101000
     48 H41         -0.3610     0.0470    -1.0200 hc         1 LIJ       0.033367
     49 H42         -0.3610    -0.9070     0.4690 hc         1 LIJ       0.033367
     50 H43         -0.3610     0.8600     0.5510 hc         1 LIJ       0.033367
     51 H51          1.8910    -0.8840    -0.5110 hc         1 LIJ       0.066950
     52 H52          1.8910     0.8840    -0.5110 hc         1 LIJ       0.066950
     53 H61          1.6620     0.8730     1.9590 hc         1 LIJ       0.049450
     54 H62          1.6980    -0.8950     1.9460 hc         1 LIJ       0.049450
     55 H7           3.8650     0.8230     0.6600 h1         1 LIJ       0.103700
     56 H10          3.9250    -4.1740     0.4620 h1         1 LIJ       0.112700
     57 HN12         1.6860    -4.4870     2.0150 hn         1 LIJ       0.317500
     58 H13          2.3390    -7.0490     3.3630 h1         1 LIJ       0.091700
     59 H17          5.3530    -6.8000     7.1200 ha         1 LIJ       0.125000
     60 H20          2.9700    -3.3200     4.5650 ha         1 LIJ       0.120500
     61 H21          0.4060    -6.9100     1.7750 h1         1 LIJ       0.041700
     62 H221         0.4770    -8.5460     3.6740 h1         1 LIJ       0.048200
     63 H222        -0.4220    -7.3830     4.6590 h1         1 LIJ       0.048200
     64 H241        -2.1330    -8.9290     4.9330 h1         1 LIJ       0.043700
     65 H242        -1.2450   -10.0920     3.9400 h1         1 LIJ       0.043700
     66 H28         -6.6060   -11.1890     1.9900 ha         1 LIJ       0.143000
     67 H11          5.9250     0.0710     4.9030 hc         1 LIJ       0.033367
     68 H12          5.3930     1.7480     4.7150 hc         1 LIJ       0.033367
     69 H13A         7.0450     1.2900     4.2780 hc         1 LIJ       0.033367
     70 H21A         5.7110     1.5250     2.2430 hc         1 LIJ       0.066950
     71 H22          6.1150    -0.1800     2.4790 hc         1 LIJ       0.066950
     72 H31          4.1080    -0.6640     3.3620 hc         1 LIJ       0.049450
     73 H32          3.3760     0.9450     3.4260 hc         1 LIJ       0.049450
     74 H91          2.6300    -2.6230     2.0260 h1         1 LIJ       0.104200
     75 H92          4.1720    -2.2930     2.8270 h1         1 LIJ       0.104200
     76 H141         1.0510    -4.6460     4.6970 hc         1 LIJ       0.062700
     77 H142         0.9550    -6.2870     5.3520 hc         1 LIJ       0.062700
     78 H16          3.1190    -7.2680     6.1860 ha         1 LIJ       0.120500
     79 H18          6.3990    -4.5950     6.7700 ha         1 LIJ       0.128000
     80 H19          5.2050    -2.8530     5.4970 ha         1 LIJ       0.125000
     81 HO21        -1.0390    -5.3860     2.0610 ho         1 LIJ       0.409000
     82 HN23        -1.3400    -8.5470     2.1440 hn         1 LIJ       0.349800
     83 H29         -4.4660   -12.1570     1.2420 ha         1 LIJ       0.134000
     84 H30         -2.3430   -11.2110     2.0470 ha         1 LIJ       0.127000
     85 H311        -6.2400    -7.5310     2.7560 h1         1 LIJ       0.040700
     86 H312        -6.0780    -7.5070     4.5170 h1         1 LIJ       0.040700
     87 H313        -7.6750    -7.3500     3.7740 h1         1 LIJ       0.040700
     88 HN40         6.1020    -4.1700     2.4890 hn         1 LIJ       0.347500
     89 H441         8.3980    -3.7130    -1.3000 h1         1 LIJ       0.059200
     90 H442         8.3840    -2.0850    -0.6070 h1         1 LIJ       0.059200
     91 H46         10.1920    -1.3180     0.8190 ha         1 LIJ       0.135500
     92 H47         12.5710    -1.5570     1.4220 ha         1 LIJ       0.131000
     93 H48         13.7730    -3.6430     0.8910 ha         1 LIJ       0.129000
     94 H49         12.6000    -5.4870    -0.2470 ha         1 LIJ       0.131000
     95 H50         10.2210    -5.2500    -0.8490 ha         1 LIJ       0.135500
     96 H26         -4.4830    -8.4130     4.4490 ha         1 LIJ       0.144000
@<TRIPOS>BOND
     1     1     2 1
     2     1    48 1
     3     1    49 1
     4     1    50 1
     5     2     3 1
     6     2    51 1
     7     2    52 1
     8     3     4 1
     9     3    53 1
    10     3    54 1
    11     4    18 1
    12     4    19 1
    13     4    55 1
    14     5    22 1
    15     5    23 1
    16     5    37 1
    17     5    56 1
    18     6     7 1
    19     6    23 1
    20     6    57 1
    21     7    11 1
    22     7    25 1
    23     7    58 1
    24     8    10 ar
    25     8    25 1
    26     8    26 ar
    27     9    26 ar
    28     9    27 ar
    29     9    59 1
    30    10    28 ar
    31    10    60 1
    32    11    12 1
    33    11    29 1
    34    11    61 1
    35    12    30 1
    36    12    62 1
    37    12    63 1
    38    13    30 1
    39    13    31 1
    40    13    64 1
    41    13    65 1
    42    14    31 ar
    43    14    32 ar
    44    14    96 1
    45    15    32 ar
    46    15    34 ar
    47    15    66 1
    48    16    17 1
    49    16    67 1
    50    16    68 1
    51    16    69 1
    52    17    18 1
    53    17    70 1
    54    17    71 1
    55    18    72 1
    56    18    73 1
    57    19    20 2
    58    19    21 2
    59    19    22 1
    60    22    74 1
    61    22    75 1
    62    23    24 2
    63    25    76 1
    64    25    77 1
    65    26    78 1
    66    27    28 ar
    67    27    79 1
    68    28    80 1
    69    29    81 1
    70    30    82 1
    71    31    35 ar
    72    32    33 1
    73    33    36 1
    74    34    35 ar
    75    34    83 1
    76    35    84 1
    77    36    85 1
    78    36    86 1
    79    36    87 1
    80    37    38 1
    81    37    88 1
    82    38    39 2
    83    38    40 1
    84    40    41 1
    85    41    42 1
    86    41    89 1
    87    41    90 1
    88    42    43 ar
    89    42    47 ar
    90    43    44 ar
    91    43    91 1
    92    44    45 ar
    93    44    92 1
    94    45    46 ar
    95    45    93 1
    96    46    47 ar
    97    46    94 1
    98    47    95 1
@<TRIPOS>SUBSTRUCTURE
     1 LIJ         1 TEMP              0 ****  ****    0 ROOT
