@<TRIPOS>MOLECULE
molecule
   33    32     1     0     0
SMALL
bcc


@<TRIPOS>ATOM
      1 O1           0.0000     0.0000     0.0000 o          1 LIK      -0.849800
      2 C21          1.3420     0.0000     0.0000 c          1 LIK       0.895600
      3 O2           1.9470     0.0000     1.0450 o          1 LIK      -0.849800
      4 C14          2.0950    -0.0000    -1.3060 c3         1 LIK      -0.155200
      5 C12          3.5770    -0.0000    -1.0320 c2         1 LIK      -0.054400
      6 CC1          4.2390    -1.1300    -1.0090 c2         1 LIK      -0.271000
      7 C7           4.2970     1.3000    -0.7830 c3         1 LIK      -0.031200
      8 C1           4.6940     1.9270    -2.1200 c3         1 LIK      -0.044200
      9 C2           5.4140     3.2270    -1.8710 c2         1 LIK      -0.102400
     10 CC3          6.7230     3.2530    -1.8270 c2         1 LIK      -0.252000
     11 C3           4.6280     4.4990    -1.6730 c3         1 LIK      -0.045200
     12 C4           4.2970     5.1120    -3.0340 c3         1 LIK      -0.075400
     13 C5           3.5000     6.4020    -2.8330 c3         1 LIK      -0.085400
     14 C6           3.1690     7.0150    -4.1950 c3         1 LIK      -0.091100
     15 H141         1.8330     0.8840    -1.8740 hc         1 LIK       0.035200
     16 H142         1.8330    -0.8850    -1.8740 hc         1 LIK       0.035200
     17 HC11         5.3040    -1.1300    -0.8120 ha         1 LIK       0.094500
     18 HC12         3.7220    -2.0650    -1.1880 ha         1 LIK       0.094500
     19 H71          5.1870     1.1130    -0.1940 hc         1 LIK       0.052200
     20 H72          3.6450     1.9780    -0.2450 hc         1 LIK       0.052200
     21 H11          5.3460     1.2500    -2.6570 hc         1 LIK       0.045200
     22 H12          3.8040     2.1140    -2.7090 hc         1 LIK       0.045200
     23 HC31         7.2400     4.1880    -1.6480 ha         1 LIK       0.104000
     24 HC32         7.2880     2.3400    -1.9690 ha         1 LIK       0.104000
     25 H31          5.2170     5.2000    -1.0940 hc         1 LIK       0.050200
     26 H32          3.7090     4.2760    -1.1440 hc         1 LIK       0.050200
     27 H41          3.7090     4.4100    -3.6130 hc         1 LIK       0.041700
     28 H42          5.2160     5.3340    -3.5630 hc         1 LIK       0.041700
     29 H51          4.0890     7.1030    -2.2550 hc         1 LIK       0.041200
     30 H52          2.5810     6.1790    -2.3050 hc         1 LIK       0.041200
     31 H61          2.6480     7.9540    -4.0520 hc         1 LIK       0.028367
     32 H62          4.0860     7.1920    -4.7440 hc         1 LIK       0.028367
     33 H63          2.5390     6.3340    -4.7550 hc         1 LIK       0.028367
@<TRIPOS>BOND
     1     1     2 1
     2     2     3 1
     3     2     4 1
     4     4     5 1
     5     4    15 1
     6     4    16 1
     7     5     6 2
     8     5     7 1
     9     6    17 1
    10     6    18 1
    11     7     8 1
    12     7    19 1
    13     7    20 1
    14     8     9 1
    15     8    21 1
    16     8    22 1
    17     9    10 2
    18     9    11 1
    19    10    23 1
    20    10    24 1
    21    11    12 1
    22    11    25 1
    23    11    26 1
    24    12    13 1
    25    12    27 1
    26    12    28 1
    27    13    14 1
    28    13    29 1
    29    13    30 1
    30    14    31 1
    31    14    32 1
    32    14    33 1
@<TRIPOS>SUBSTRUCTURE
     1 LIK         1 TEMP              0 ****  ****    0 ROOT
