@<TRIPOS>MOLECULE
LIK
   33    32     1     0     0
SMALL
bcc


@<TRIPOS>ATOM
      1 O1          0.4890    1.0170    0.0240 o         1 LIK     -0.845300
      2 C21         1.5020    1.4830   -0.5640 c         1 LIK      0.918600
      3 O2          1.9770    2.6380   -0.3430 o         1 LIK     -0.845300
      4 C14         2.1690    0.6100   -1.6520 c3        1 LIK     -0.178200
      5 C12         3.4910    0.0680   -1.2450 c2        1 LIK     -0.041400
      6 CC1         3.7320   -1.2470   -1.1700 c2        1 LIK     -0.294000
      7 C7          4.5370    1.0720   -0.8910 c3        1 LIK     -0.060200
      8 C1          5.1190    1.7540   -2.1190 c3        1 LIK     -0.037200
      9 C2          5.6930    3.0900   -1.7830 c2        1 LIK     -0.068400
     10 CC3         7.0110    3.3010   -1.7080 c2        1 LIK     -0.275000
     11 C3          4.6970    4.1730   -1.5320 c3        1 LIK     -0.083200
     12 C4          4.3140    4.8860   -2.8150 c3        1 LIK     -0.059400
     13 C5          3.2010    5.8810   -2.5610 c3        1 LIK     -0.088400
     14 C6          2.7860    6.5850   -3.8270 c3        1 LIK     -0.087100
     15 H141        1.4680   -0.2250   -1.9090 hc        1 LIK      0.033700
     16 H142        2.2980    1.2520   -2.5620 hc        1 LIK      0.033700
     17 HC11        2.9650   -1.9960   -1.3920 ha        1 LIK      0.091500
     18 HC12        4.7030   -1.6500   -0.8600 ha        1 LIK      0.091500
     19 H71         4.0510    1.8410   -0.2220 hc        1 LIK      0.065700
     20 H72         5.3680    0.5870   -0.3130 hc        1 LIK      0.065700
     21 H11         5.9030    1.0960   -2.5790 hc        1 LIK      0.038700
     22 H12         4.3090    1.9010   -2.8850 hc        1 LIK      0.038700
     23 HC31        7.7450    2.5060   -1.8820 ha        1 LIK      0.096000
     24 HC32        7.4340    4.2820   -1.4620 ha        1 LIK      0.096000
     25 H31         5.1160    4.9180   -0.8060 hc        1 LIK      0.083200
     26 H32         3.7640    3.7280   -1.0660 hc        1 LIK      0.083200
     27 H41         5.2070    5.4120   -3.2440 hc        1 LIK      0.026700
     28 H42         3.9740    4.1320   -3.5740 hc        1 LIK      0.026700
     29 H51         2.3220    5.3400   -2.1170 hc        1 LIK      0.053700
     30 H52         3.5420    6.6360   -1.8040 hc        1 LIK      0.053700
     31 H61         1.9690    7.3160   -3.6150 hc        1 LIK      0.021700
     32 H62         3.6470    7.1380   -4.2740 hc        1 LIK      0.021700
     33 H63         2.4140    5.8490   -4.5800 hc        1 LIK      0.021700
@<TRIPOS>BOND
     1    1    2 1   
     2    2    3 1   
     3    2    4 1   
     4    4    5 1   
     5    4   15 1   
     6    4   16 1   
     7    5    6 2   
     8    5    7 1   
     9    6   17 1   
    10    6   18 1   
    11    7    8 1   
    12    7   19 1   
    13    7   20 1   
    14    8    9 1   
    15    8   21 1   
    16    8   22 1   
    17    9   10 2   
    18    9   11 1   
    19   10   23 1   
    20   10   24 1   
    21   11   12 1   
    22   11   25 1   
    23   11   26 1   
    24   12   13 1   
    25   12   27 1   
    26   12   28 1   
    27   13   14 1   
    28   13   29 1   
    29   13   30 1   
    30   14   31 1   
    31   14   32 1   
    32   14   33 1   
@<TRIPOS>SUBSTRUCTURE
     1 LIK         1 TEMP              0 ****  ****    0 ROOT
