@<TRIPOS>MOLECULE
LIL
   85    84     1     0     0
SMALL
bcc


@<TRIPOS>ATOM
      1 C1E        -0.0280    1.2380    1.0950 c         1 LIL      0.918600
      2 C2E         1.3430    0.6110    0.7720 c3        1 LIL     -0.234400
      3 C3E         2.1180    0.2200    2.0210 c3        1 LIL      0.184100
      4 C4E         1.4260   -0.9110    2.7710 c3        1 LIL     -0.086400
      5 C5E         2.1820   -1.3210    4.0150 c3        1 LIL     -0.075400
      6 C6E         1.4740   -2.4450    4.7390 c3        1 LIL     -0.078400
      7 C7E         2.2210   -2.8530    5.9910 c3        1 LIL     -0.078400
      8 C8E         1.5110   -3.9750    6.7170 c3        1 LIL     -0.079400
      9 C9E         2.2580   -4.3810    7.9690 c3        1 LIL     -0.078400
     10 C0S         1.5460   -5.5030    8.6950 c3        1 LIL     -0.079400
     11 C1S         2.2930   -5.9090    9.9480 c3        1 LIL     -0.078400
     12 C2S         1.5810   -7.0290   10.6750 c3        1 LIL     -0.079400
     13 C3S         2.3270   -7.4340   11.9280 c3        1 LIL     -0.079400
     14 C4S         1.6150   -8.5540   12.6560 c3        1 LIL     -0.080400
     15 C5S         2.3540   -8.9610   13.9040 c3        1 LIL     -0.092100
     16 O1E        -1.0050    0.4650    1.3010 o         1 LIL     -0.850800
     17 O2E         2.1740    1.3310    2.9450 os        1 LIL     -0.449900
     18 C1F         2.7820    2.4730    2.4970 c         1 LIL      0.671100
     19 C2F         2.1130    3.7090    3.0060 c3        1 LIL     -0.160400
     20 C3F         2.9820    4.9340    2.8510 c3        1 LIL     -0.069400
     21 C4F         2.2130    6.1870    3.2120 c3        1 LIL     -0.079400
     22 C5F         3.0750    7.4220    3.0630 c3        1 LIL     -0.077400
     23 C6F         2.3060    8.6760    3.4230 c3        1 LIL     -0.079400
     24 C7F         3.1680    9.9120    3.2740 c3        1 LIL     -0.078400
     25 C8F         2.3990   11.1650    3.6350 c3        1 LIL     -0.079400
     26 C9F         3.2610   12.4010    3.4870 c3        1 LIL     -0.078400
     27 C0T         2.4930   13.6540    3.8500 c3        1 LIL     -0.079400
     28 C1T         3.3540   14.8890    3.7020 c3        1 LIL     -0.079400
     29 C2T         2.5870   16.1430    4.0650 c3        1 LIL     -0.080400
     30 C3T         3.4400   17.3760    3.9190 c3        1 LIL     -0.092100
     31 O1F         3.7760    2.3720    1.7700 o         1 LIL     -0.581000
     32 O3E        -0.1080    2.5020    1.1240 o         1 LIL     -0.850800
     33 H2E1        1.9490    1.3510    0.1900 hc        1 LIL      0.040700
     34 H2E2        1.1850   -0.3010    0.1470 hc        1 LIL      0.040700
     35 H3E1        3.1760   -0.0610    1.7600 h1        1 LIL      0.026700
     36 H4E1        0.3830   -0.5770    3.0260 hc        1 LIL      0.070700
     37 H4E2        1.3380   -1.7810    2.0700 hc        1 LIL      0.070700
     38 H5E1        2.2810   -0.4330    4.6940 hc        1 LIL      0.036200
     39 H5E2        3.2210   -1.6440    3.7400 hc        1 LIL      0.036200
     40 H6E1        1.3740   -3.3290    4.0560 hc        1 LIL      0.039700
     41 H6E2        0.4350   -2.1180    5.0090 hc        1 LIL      0.039700
     42 H7E1        3.2600   -3.1780    5.7190 hc        1 LIL      0.035700
     43 H7E2        2.3210   -1.9670    6.6730 hc        1 LIL      0.035700
     44 H8E1        1.4120   -4.8600    6.0340 hc        1 LIL      0.038700
     45 H8E2        0.4730   -3.6480    6.9870 hc        1 LIL      0.038700
     46 H9E1        3.2970   -4.7080    7.6980 hc        1 LIL      0.037200
     47 H9E2        2.3580   -3.4960    8.6500 hc        1 LIL      0.037200
     48 H0S1        1.4460   -6.3880    8.0140 hc        1 LIL      0.038700
     49 H0S2        0.5080   -5.1750    8.9660 hc        1 LIL      0.038700
     50 H1S1        3.3310   -6.2360    9.6780 hc        1 LIL      0.038200
     51 H1S2        2.3940   -5.0230   10.6290 hc        1 LIL      0.038200
     52 H2S1        1.4800   -7.9150    9.9940 hc        1 LIL      0.039200
     53 H2S2        0.5420   -6.7010   10.9450 hc        1 LIL      0.039200
     54 H3S1        2.4280   -6.5490   12.6090 hc        1 LIL      0.038200
     55 H3S2        3.3650   -7.7630   11.6580 hc        1 LIL      0.038200
     56 H4S1        0.5760   -8.2240   12.9240 hc        1 LIL      0.038200
     57 H4S2        1.5130   -9.4390   11.9730 hc        1 LIL      0.038200
     58 H5S1        2.4430   -8.0990   14.6080 hc        1 LIL      0.030367
     59 H5S2        1.8120   -9.7870   14.4260 hc        1 LIL      0.030367
     60 H5S3        3.3830   -9.3170   13.6550 hc        1 LIL      0.030367
     61 H2F1        1.1590    3.7940    2.3970 hc        1 LIL      0.108200
     62 H2F2        1.8150    3.5600    4.0760 hc        1 LIL      0.108200
     63 H3F1        3.8900    4.8440    3.5030 hc        1 LIL      0.043200
     64 H3F2        3.3440    5.0000    1.7900 hc        1 LIL      0.043200
     65 H4F1        1.3090    6.2740    2.5520 hc        1 LIL      0.043700
     66 H4F2        1.8430    6.1110    4.2690 hc        1 LIL      0.043700
     67 H5F1        3.4430    7.4970    2.0060 hc        1 LIL      0.036200
     68 H5F2        3.9790    7.3330    3.7210 hc        1 LIL      0.036200
     69 H6F1        1.4040    8.7640    2.7630 hc        1 LIL      0.039700
     70 H6F2        1.9360    8.6000    4.4790 hc        1 LIL      0.039700
     71 H7F1        4.0720    9.8220    3.9330 hc        1 LIL      0.037200
     72 H7F2        3.5360    9.9880    2.2170 hc        1 LIL      0.037200
     73 H8F1        1.4960   11.2550    2.9760 hc        1 LIL      0.039200
     74 H8F2        2.0300   11.0880    4.6920 hc        1 LIL      0.039200
     75 H9F1        3.6290   12.4780    2.4300 hc        1 LIL      0.037700
     76 H9F2        4.1650   12.3100    4.1460 hc        1 LIL      0.037700
     77 H0T1        2.1240   13.5760    4.9070 hc        1 LIL      0.039200
     78 H0T2        1.5890   13.7440    3.1910 hc        1 LIL      0.039200
     79 H1T1        4.2580   14.7990    4.3600 hc        1 LIL      0.038200
     80 H1T2        3.7210   14.9670    2.6440 hc        1 LIL      0.038200
     81 H2T1        1.6820   16.2310    3.4070 hc        1 LIL      0.038200
     82 H2T2        2.2190   16.0630    5.1220 hc        1 LIL      0.038200
     83 H3T1        3.7960   17.4870    2.8660 hc        1 LIL      0.030367
     84 H3T2        4.3340   17.3180    4.5850 hc        1 LIL      0.030367
     85 H3T3        2.8560   18.2880    4.1910 hc        1 LIL      0.030367
@<TRIPOS>BOND
     1    1    2 1   
     2    1   16 1   
     3    1   32 1   
     4    2    3 1   
     5    2   33 1   
     6    2   34 1   
     7    3    4 1   
     8    3   17 1   
     9    3   35 1   
    10    4    5 1   
    11    4   36 1   
    12    4   37 1   
    13    5    6 1   
    14    5   38 1   
    15    5   39 1   
    16    6    7 1   
    17    6   40 1   
    18    6   41 1   
    19    7    8 1   
    20    7   42 1   
    21    7   43 1   
    22    8    9 1   
    23    8   44 1   
    24    8   45 1   
    25    9   10 1   
    26    9   46 1   
    27    9   47 1   
    28   10   11 1   
    29   10   48 1   
    30   10   49 1   
    31   11   12 1   
    32   11   50 1   
    33   11   51 1   
    34   12   13 1   
    35   12   52 1   
    36   12   53 1   
    37   13   14 1   
    38   13   54 1   
    39   13   55 1   
    40   14   15 1   
    41   14   56 1   
    42   14   57 1   
    43   15   58 1   
    44   15   59 1   
    45   15   60 1   
    46   17   18 1   
    47   18   19 1   
    48   18   31 2   
    49   19   20 1   
    50   19   61 1   
    51   19   62 1   
    52   20   21 1   
    53   20   63 1   
    54   20   64 1   
    55   21   22 1   
    56   21   65 1   
    57   21   66 1   
    58   22   23 1   
    59   22   67 1   
    60   22   68 1   
    61   23   24 1   
    62   23   69 1   
    63   23   70 1   
    64   24   25 1   
    65   24   71 1   
    66   24   72 1   
    67   25   26 1   
    68   25   73 1   
    69   25   74 1   
    70   26   27 1   
    71   26   75 1   
    72   26   76 1   
    73   27   28 1   
    74   27   77 1   
    75   27   78 1   
    76   28   29 1   
    77   28   79 1   
    78   28   80 1   
    79   29   30 1   
    80   29   81 1   
    81   29   82 1   
    82   30   83 1   
    83   30   84 1   
    84   30   85 1   
@<TRIPOS>SUBSTRUCTURE
     1 LIL         1 TEMP              0 ****  ****    0 ROOT
