@<TRIPOS>MOLECULE
molecule
   85    84     1     0     0
SMALL
bcc


@<TRIPOS>ATOM
      1 C1E          0.0000     0.0000     0.0000 c          1 LIL       0.889600
      2 C2E          1.5070     0.0000     0.0000 c3         1 LIL      -0.210400
      3 C3E          2.0160     0.0000     1.4420 c3         1 LIL       0.183100
      4 C4E          1.5640    -1.2830     2.1430 c3         1 LIL      -0.083400
      5 C5E          2.0740    -1.2830     3.5850 c3         1 LIL      -0.082400
      6 C6E          1.6230    -2.5670     4.2860 c3         1 LIL      -0.081400
      7 C7E          2.1330    -2.5670     5.7280 c3         1 LIL      -0.082400
      8 C8E          1.6820    -3.8500     6.4290 c3         1 LIL      -0.082400
      9 C9E          2.1910    -3.8500     7.8710 c3         1 LIL      -0.082400
     10 C0S          1.7410    -5.1340     8.5700 c3         1 LIL      -0.082400
     11 C1S          2.2490    -5.1330    10.0140 c3         1 LIL      -0.082400
     12 C2S          1.7990    -6.4170    10.7130 c3         1 LIL      -0.082400
     13 C3S          2.3090    -6.4170    12.1570 c3         1 LIL      -0.082400
     14 C4S          1.8570    -7.7000    12.8560 c3         1 LIL      -0.084400
     15 C5S          2.3670    -7.7000    14.2990 c3         1 LIL      -0.092100
     16 O1E         -0.6040     0.1170     1.0380 o          1 LIL      -0.848300
     17 O2E          1.4780     1.1500     2.1470 os         1 LIL      -0.384900
     18 C1F          2.1200     2.3260     2.1000 c          1 LIL       0.638100
     19 C2F          1.5050     3.5480     2.7330 c3         1 LIL      -0.126400
     20 C3F          2.4350     4.7470     2.5390 c3         1 LIL      -0.071400
     21 C4F          1.8090     5.9860     3.1810 c3         1 LIL      -0.084400
     22 C5F          2.7390     7.1860     2.9880 c3         1 LIL      -0.080400
     23 C6F          2.1140     8.4250     3.6280 c3         1 LIL      -0.082400
     24 C7F          3.0440     9.6250     3.4360 c3         1 LIL      -0.082400
     25 C8F          2.4190    10.8640     4.0770 c3         1 LIL      -0.082400
     26 C9F          3.3490    12.0640     3.8840 c3         1 LIL      -0.082400
     27 C0T          2.7240    13.3030     4.5260 c3         1 LIL      -0.082400
     28 C1T          3.6530    14.5020     4.3330 c3         1 LIL      -0.081400
     29 C2T          3.0280    15.7420     4.9750 c3         1 LIL      -0.084400
     30 C3T          3.9580    16.9410     4.7820 c3         1 LIL      -0.092100
     31 O1F          3.1940     2.4070     1.5510 o          1 LIL      -0.594000
     32 O3E         -0.6700    -0.1290    -1.1560 o          1 LIL      -0.848300
     33 H2E1         1.8680     0.8850    -0.5110 hc         1 LIL       0.044700
     34 H2E2         1.8680    -0.8850    -0.5110 hc         1 LIL       0.044700
     35 H3E1         3.0980     0.0500     1.4430 h1         1 LIL       0.027700
     36 H4E1         1.9660    -2.1420     1.6180 hc         1 LIL       0.073700
     37 H4E2         0.4820    -1.3330     2.1430 hc         1 LIL       0.073700
     38 H5E1         1.6730    -0.4250     4.1100 hc         1 LIL       0.036200
     39 H5E2         3.1570    -1.2330     3.5850 hc         1 LIL       0.036200
     40 H6E1         2.0240    -3.4250     3.7610 hc         1 LIL       0.041200
     41 H6E2         0.5410    -2.6170     4.2860 hc         1 LIL       0.041200
     42 H7E1         1.7320    -1.7080     6.2530 hc         1 LIL       0.037200
     43 H7E2         3.2150    -2.5170     5.7280 hc         1 LIL       0.037200
     44 H8E1         2.0830    -4.7080     5.9040 hc         1 LIL       0.040200
     45 H8E2         0.6000    -3.9000     6.4280 hc         1 LIL       0.040200
     46 H9E1         1.7880    -2.9920     8.3960 hc         1 LIL       0.038700
     47 H9E2         3.2730    -3.7980     7.8720 hc         1 LIL       0.038700
     48 H0S1         2.1450    -5.9910     8.0460 hc         1 LIL       0.040700
     49 H0S2         0.6590    -5.1860     8.5690 hc         1 LIL       0.040700
     50 H1S1         3.3310    -5.0820    10.0160 hc         1 LIL       0.039700
     51 H1S2         1.8460    -4.2750    10.5380 hc         1 LIL       0.039700
     52 H2S1         2.2010    -7.2750    10.1880 hc         1 LIL       0.040200
     53 H2S2         0.7160    -6.4680    10.7130 hc         1 LIL       0.040200
     54 H3S1         1.9070    -5.5580    12.6820 hc         1 LIL       0.040200
     55 H3S2         3.3910    -6.3670    12.1570 hc         1 LIL       0.040200
     56 H4S1         2.2590    -8.5580    12.3310 hc         1 LIL       0.039200
     57 H4S2         0.7750    -7.7500    12.8560 hc         1 LIL       0.039200
     58 H5S1         3.4500    -7.6500    14.3000 hc         1 LIL       0.030367
     59 H5S2         2.0480    -8.6080    14.7950 hc         1 LIL       0.030367
     60 H5S3         1.9660    -6.8420    14.8240 hc         1 LIL       0.030367
     61 H2F1         1.3590     3.3710     3.7910 hc         1 LIL       0.069700
     62 H2F2         0.5490     3.7530     2.2660 hc         1 LIL       0.069700
     63 H3F1         2.5810     4.9230     1.4800 hc         1 LIL       0.054200
     64 H3F2         3.3900     4.5420     3.0060 hc         1 LIL       0.054200
     65 H4F1         0.8540     6.1920     2.7130 hc         1 LIL       0.039200
     66 H4F2         1.6630     5.8100     4.2390 hc         1 LIL       0.039200
     67 H5F1         2.8870     7.3620     1.9290 hc         1 LIL       0.041700
     68 H5F2         3.6950     6.9810     3.4560 hc         1 LIL       0.041700
     69 H6F1         1.1590     8.6300     3.1600 hc         1 LIL       0.039700
     70 H6F2         1.9670     8.2490     4.6870 hc         1 LIL       0.039700
     71 H7F1         3.9990     9.4190     3.9030 hc         1 LIL       0.040700
     72 H7F2         3.1910     9.8010     2.3770 hc         1 LIL       0.040700
     73 H8F1         2.2730    10.6880     5.1360 hc         1 LIL       0.040200
     74 H8F2         1.4630    11.0690     3.6100 hc         1 LIL       0.040200
     75 H9F1         4.3050    11.8580     4.3500 hc         1 LIL       0.040200
     76 H9F2         3.4940    12.2400     2.8250 hc         1 LIL       0.040200
     77 H0T1         1.7680    13.5090     4.0590 hc         1 LIL       0.040200
     78 H0T2         2.5780    13.1270     5.5850 hc         1 LIL       0.040200
     79 H1T1         4.6090    14.2960     4.8000 hc         1 LIL       0.040200
     80 H1T2         3.8000    14.6780     3.2740 hc         1 LIL       0.040200
     81 H2T1         2.0730    15.9480     4.5080 hc         1 LIL       0.039200
     82 H2T2         2.8820    15.5660     6.0340 hc         1 LIL       0.039200
     83 H3T1         3.5150    17.8190     5.2360 hc         1 LIL       0.031033
     84 H3T2         4.9140    16.7350     5.2490 hc         1 LIL       0.031033
     85 H3T3         4.1040    17.1170     3.7230 hc         1 LIL       0.031033
@<TRIPOS>BOND
     1     1     2 1
     2     1    16 1
     3     1    32 1
     4     2     3 1
     5     2    33 1
     6     2    34 1
     7     3     4 1
     8     3    17 1
     9     3    35 1
    10     4     5 1
    11     4    36 1
    12     4    37 1
    13     5     6 1
    14     5    38 1
    15     5    39 1
    16     6     7 1
    17     6    40 1
    18     6    41 1
    19     7     8 1
    20     7    42 1
    21     7    43 1
    22     8     9 1
    23     8    44 1
    24     8    45 1
    25     9    10 1
    26     9    46 1
    27     9    47 1
    28    10    11 1
    29    10    48 1
    30    10    49 1
    31    11    12 1
    32    11    50 1
    33    11    51 1
    34    12    13 1
    35    12    52 1
    36    12    53 1
    37    13    14 1
    38    13    54 1
    39    13    55 1
    40    14    15 1
    41    14    56 1
    42    14    57 1
    43    15    58 1
    44    15    59 1
    45    15    60 1
    46    17    18 1
    47    18    19 1
    48    18    31 2
    49    19    20 1
    50    19    61 1
    51    19    62 1
    52    20    21 1
    53    20    63 1
    54    20    64 1
    55    21    22 1
    56    21    65 1
    57    21    66 1
    58    22    23 1
    59    22    67 1
    60    22    68 1
    61    23    24 1
    62    23    69 1
    63    23    70 1
    64    24    25 1
    65    24    71 1
    66    24    72 1
    67    25    26 1
    68    25    73 1
    69    25    74 1
    70    26    27 1
    71    26    75 1
    72    26    76 1
    73    27    28 1
    74    27    77 1
    75    27    78 1
    76    28    29 1
    77    28    79 1
    78    28    80 1
    79    29    30 1
    80    29    81 1
    81    29    82 1
    82    30    83 1
    83    30    84 1
    84    30    85 1
@<TRIPOS>SUBSTRUCTURE
     1 LIL         1 TEMP              0 ****  ****    0 ROOT
