@<TRIPOS>MOLECULE
LIM
   45    44     1     0     0
SMALL
bcc


@<TRIPOS>ATOM
      1 C1J         1.2800   -1.2740   -0.1180 c         1 LIM      0.924600
      2 C2J         1.3660    0.2540    0.1390 c3        1 LIM     -0.312400
      3 C3J         1.7990    0.5980    1.5220 c         1 LIM      0.600100
      4 C4J         3.2180    0.2350    1.8600 c3        1 LIM     -0.204400
      5 C5J         3.5790    0.5230    3.2980 c3        1 LIM     -0.067400
      6 C6J         5.0070    0.1180    3.5940 c3        1 LIM     -0.078400
      7 C7J         5.3690    0.3920    5.0380 c3        1 LIM     -0.078400
      8 C8J         6.7970   -0.0110    5.3350 c3        1 LIM     -0.079400
      9 C9J         7.1580    0.2610    6.7800 c3        1 LIM     -0.078400
     10 C0X         8.5870   -0.1410    7.0770 c3        1 LIM     -0.079400
     11 C1X         8.9470    0.1290    8.5220 c3        1 LIM     -0.078400
     12 C2X        10.3760   -0.2720    8.8180 c3        1 LIM     -0.079400
     13 C3X        10.7350   -0.0030   10.2630 c3        1 LIM     -0.079400
     14 C4X        12.1650   -0.4030   10.5600 c3        1 LIM     -0.080400
     15 C5X        12.5270   -0.1380   11.9990 c3        1 LIM     -0.092100
     16 O1J         2.2860   -1.9900    0.1510 o         1 LIM     -0.832300
     17 O2J         1.0510    1.1550    2.3420 o         1 LIM     -0.608100
     18 O3J         0.2130   -1.7060   -0.6290 o         1 LIM     -0.832300
     19 H2J1        2.1110    0.6600   -0.5910 hc        1 LIM      0.051700
     20 H2J2        0.3640    0.7040   -0.0740 hc        1 LIM      0.051700
     21 H4J1        3.3380   -0.8650    1.6240 hc        1 LIM      0.088700
     22 H4J2        3.9010    0.7950    1.1690 hc        1 LIM      0.088700
     23 H5J1        2.8760   -0.0330    3.9730 hc        1 LIM      0.040700
     24 H5J2        3.4390    1.6150    3.5120 hc        1 LIM      0.040700
     25 H6J1        5.1390   -0.9740    3.3730 hc        1 LIM      0.037700
     26 H6J2        5.7060    0.6780    2.9190 hc        1 LIM      0.037700
     27 H7J1        5.2320    1.4840    5.2600 hc        1 LIM      0.036700
     28 H7J2        4.6710   -0.1710    5.7120 hc        1 LIM      0.036700
     29 H8J1        6.9330   -1.1020    5.1130 hc        1 LIM      0.038200
     30 H8J2        7.4950    0.5520    4.6610 hc        1 LIM      0.038200
     31 H9J1        7.0200    1.3510    7.0030 hc        1 LIM      0.037200
     32 H9J2        6.4610   -0.3040    7.4540 hc        1 LIM      0.037200
     33 H0X1        9.2840    0.4240    6.4040 hc        1 LIM      0.038700
     34 H0X2        8.7240   -1.2320    6.8530 hc        1 LIM      0.038700
     35 H1X1        8.8080    1.2190    8.7460 hc        1 LIM      0.038200
     36 H1X2        8.2500   -0.4380    9.1950 hc        1 LIM      0.038200
     37 H2X1       11.0720    0.2950    8.1450 hc        1 LIM      0.038200
     38 H2X2       10.5140   -1.3630    8.5920 hc        1 LIM      0.038200
     39 H3X1       10.5960    1.0870   10.4890 hc        1 LIM      0.038200
     40 H3X2       10.0390   -0.5710   10.9360 hc        1 LIM      0.038200
     41 H4X1       12.3020   -1.4930   10.3320 hc        1 LIM      0.037700
     42 H4X2       12.8590    0.1650    9.8860 hc        1 LIM      0.037700
     43 H5X1       13.5840   -0.4390   12.1960 hc        1 LIM      0.030367
     44 H5X2       11.8610   -0.7150   12.6850 hc        1 LIM      0.030367
     45 H5X3       12.4190    0.9480   12.2380 hc        1 LIM      0.030367
@<TRIPOS>BOND
     1    1    2 1   
     2    1   16 1   
     3    1   18 1   
     4    2    3 1   
     5    2   19 1   
     6    2   20 1   
     7    3    4 1   
     8    3   17 2   
     9    4    5 1   
    10    4   21 1   
    11    4   22 1   
    12    5    6 1   
    13    5   23 1   
    14    5   24 1   
    15    6    7 1   
    16    6   25 1   
    17    6   26 1   
    18    7    8 1   
    19    7   27 1   
    20    7   28 1   
    21    8    9 1   
    22    8   29 1   
    23    8   30 1   
    24    9   10 1   
    25    9   31 1   
    26    9   32 1   
    27   10   11 1   
    28   10   33 1   
    29   10   34 1   
    30   11   12 1   
    31   11   35 1   
    32   11   36 1   
    33   12   13 1   
    34   12   37 1   
    35   12   38 1   
    36   13   14 1   
    37   13   39 1   
    38   13   40 1   
    39   14   15 1   
    40   14   41 1   
    41   14   42 1   
    42   15   43 1   
    43   15   44 1   
    44   15   45 1   
@<TRIPOS>SUBSTRUCTURE
     1 LIM         1 TEMP              0 ****  ****    0 ROOT
