@<TRIPOS>MOLECULE
molecule
   45    44     1     0     0
SMALL
bcc


@<TRIPOS>ATOM
      1 C1J          0.0000     0.0000     0.0000 c          1 LIM       0.888600
      2 C2J          1.5060     0.0000     0.0000 c3         1 LIM      -0.282400
      3 C3J          2.0090     0.0000     1.4210 c          1 LIM       0.546100
      4 C4J          3.4900    -0.0000     1.6950 c3         1 LIM      -0.196400
      5 C5J          3.7300     0.0000     3.2060 c3         1 LIM      -0.071400
      6 C6J          5.2330    -0.0000     3.4860 c3         1 LIM      -0.084400
      7 C7J          5.4710     0.0000     4.9970 c3         1 LIM      -0.081400
      8 C8J          6.9750    -0.0000     5.2760 c3         1 LIM      -0.082400
      9 C9J          7.2130     0.0000     6.7870 c3         1 LIM      -0.082400
     10 C0X          8.7170    -0.0000     7.0670 c3         1 LIM      -0.082400
     11 C1X          8.9560     0.0000     8.5770 c3         1 LIM      -0.082400
     12 C2X         10.4600    -0.0000     8.8580 c3         1 LIM      -0.082400
     13 C3X         10.6980     0.0000    10.3680 c3         1 LIM      -0.081400
     14 C4X         12.2020    -0.0000    10.6480 c3         1 LIM      -0.084400
     15 C5X         12.4400     0.0000    12.1590 c3         1 LIM      -0.092100
     16 O1J         -0.6040     0.0000     1.0460 o          1 LIM      -0.834800
     17 O2J          1.2250     0.0000     2.3380 o          1 LIM      -0.475100
     18 O3J         -0.6720     0.0000    -1.1620 o          1 LIM      -0.834800
     19 H2J1         1.8670     0.8840    -0.5110 hc         1 LIM       0.048700
     20 H2J2         1.8670    -0.8840    -0.5110 hc         1 LIM       0.048700
     21 H4J1         3.9380     0.8840     1.2590 hc         1 LIM       0.046700
     22 H4J2         3.9380    -0.8840     1.2590 hc         1 LIM       0.046700
     23 H5J1         3.2810    -0.8840     3.6430 hc         1 LIM       0.052700
     24 H5J2         3.2810     0.8840     3.6430 hc         1 LIM       0.052700
     25 H6J1         5.6810     0.8840     3.0500 hc         1 LIM       0.033700
     26 H6J2         5.6810    -0.8840     3.0500 hc         1 LIM       0.033700
     27 H7J1         5.0220     0.8850     5.4330 hc         1 LIM       0.042700
     28 H7J2         5.0220    -0.8850     5.4330 hc         1 LIM       0.042700
     29 H8J1         7.4240     0.8840     4.8400 hc         1 LIM       0.037700
     30 H8J2         7.4240    -0.8840     4.8400 hc         1 LIM       0.037700
     31 H9J1         6.7650    -0.8840     7.2230 hc         1 LIM       0.040700
     32 H9J2         6.7650     0.8840     7.2230 hc         1 LIM       0.040700
     33 H0X1         9.1660    -0.8840     6.6310 hc         1 LIM       0.038700
     34 H0X2         9.1660     0.8840     6.6310 hc         1 LIM       0.038700
     35 H1X1         8.5070    -0.8840     9.0140 hc         1 LIM       0.040700
     36 H1X2         8.5070     0.8840     9.0140 hc         1 LIM       0.040700
     37 H2X1        10.9080     0.8840     8.4220 hc         1 LIM       0.039700
     38 H2X2        10.9080    -0.8840     8.4220 hc         1 LIM       0.039700
     39 H3X1        10.2500     0.8840    10.8040 hc         1 LIM       0.040700
     40 H3X2        10.2500    -0.8840    10.8040 hc         1 LIM       0.040700
     41 H4X1        12.6510    -0.8840    10.2120 hc         1 LIM       0.038700
     42 H4X2        12.6510     0.8840    10.2120 hc         1 LIM       0.038700
     43 H5X1        11.9920    -0.8850    12.5950 hc         1 LIM       0.030700
     44 H5X2        11.9920     0.8850    12.5950 hc         1 LIM       0.030700
     45 H5X3        13.5050    -0.0000    12.3570 hc         1 LIM       0.030700
@<TRIPOS>BOND
     1     1     2 1
     2     1    16 1
     3     1    18 1
     4     2     3 1
     5     2    19 1
     6     2    20 1
     7     3     4 1
     8     3    17 2
     9     4     5 1
    10     4    21 1
    11     4    22 1
    12     5     6 1
    13     5    23 1
    14     5    24 1
    15     6     7 1
    16     6    25 1
    17     6    26 1
    18     7     8 1
    19     7    27 1
    20     7    28 1
    21     8     9 1
    22     8    29 1
    23     8    30 1
    24     9    10 1
    25     9    31 1
    26     9    32 1
    27    10    11 1
    28    10    33 1
    29    10    34 1
    30    11    12 1
    31    11    35 1
    32    11    36 1
    33    12    13 1
    34    12    37 1
    35    12    38 1
    36    13    14 1
    37    13    39 1
    38    13    40 1
    39    14    15 1
    40    14    41 1
    41    14    42 1
    42    15    43 1
    43    15    44 1
    44    15    45 1
@<TRIPOS>SUBSTRUCTURE
     1 LIM         1 TEMP              0 ****  ****    0 ROOT
