@<TRIPOS>MOLECULE
LIN
   12    11     1     0     0
SMALL
bcc


@<TRIPOS>ATOM
      1 C1I         0.4890    0.5740   -0.0820 c         1 LIN      0.925600
      2 C2I         1.5360   -0.5690   -0.0170 c3        1 LIN     -0.311400
      3 C3I         2.1210   -0.7570    1.3390 c         1 LIN      0.598100
      4 C4I         2.9770    0.3620    1.8440 c3        1 LIN     -0.214100
      5 O1I         0.8160    1.7190    0.3430 o         1 LIN     -0.833300
      6 O2I         1.9320   -1.7780    2.0220 o         1 LIN     -0.613100
      7 O3I        -0.6240    0.2990   -0.6050 o         1 LIN     -0.833300
      8 H2I1        1.0480   -1.5150   -0.3620 hc        1 LIN      0.050700
      9 H2I2        2.3520   -0.2970   -0.7330 hc        1 LIN      0.050700
     10 H4I1        2.3940    1.3190    1.7510 hc        1 LIN      0.060700
     11 H4I2        3.2790    0.1970    2.9050 hc        1 LIN      0.060700
     12 H4I3        3.8930    0.4460    1.2120 hc        1 LIN      0.060700
@<TRIPOS>BOND
     1    1    2 1   
     2    1    5 1   
     3    1    7 1   
     4    2    3 1   
     5    2    8 1   
     6    2    9 1   
     7    3    4 1   
     8    3    6 2   
     9    4   10 1   
    10    4   11 1   
    11    4   12 1   
@<TRIPOS>SUBSTRUCTURE
     1 LIN         1 TEMP              0 ****  ****    0 ROOT
