@<TRIPOS>MOLECULE
molecule
   12    11     1     0     0
SMALL
bcc


@<TRIPOS>ATOM
      1 C1I          0.0000     0.0000     0.0000 c          1 LIN       0.888600
      2 C2I          1.5060     0.0000     0.0000 c3         1 LIN      -0.283400
      3 C3I          2.0070     0.0000     1.4220 c          1 LIN       0.544100
      4 C4I          3.4880    -0.0000     1.6990 c3         1 LIN      -0.209100
      5 O1I         -0.6050     0.0000     1.0450 o          1 LIN      -0.835300
      6 O2I          1.2220     0.0000     2.3380 o          1 LIN      -0.477100
      7 O3I         -0.6690     0.0000    -1.1640 o          1 LIN      -0.835300
      8 H2I1         1.8670     0.8850    -0.5100 hc         1 LIN       0.047700
      9 H2I2         1.8670    -0.8850    -0.5100 hc         1 LIN       0.047700
     10 H4I1         3.6550    -0.0000     2.7690 hc         1 LIN       0.037700
     11 H4I2         3.9370    -0.8850     1.2640 hc         1 LIN       0.037700
     12 H4I3         3.9370     0.8850     1.2640 hc         1 LIN       0.037700
@<TRIPOS>BOND
     1     1     2 1
     2     1     5 1
     3     1     7 1
     4     2     3 1
     5     2     8 1
     6     2     9 1
     7     3     4 1
     8     3     6 2
     9     4    10 1
    10     4    11 1
    11     4    12 1
@<TRIPOS>SUBSTRUCTURE
     1 LIN         1 TEMP              0 ****  ****    0 ROOT
