@<TRIPOS>MOLECULE
LIO
  109   108     1     0     0
SMALL
bcc


@<TRIPOS>ATOM
      1 C1           0.0000     0.0000     0.0000 c3         1 LIO       0.225400
      2 C2           1.5300     0.0000     0.0000 c3         1 LIO       0.168100
      3 C3           2.0410     0.0000     1.4420 c3         1 LIO       0.238400
      4 C4          -4.1080    -2.2860     1.3000 c3         1 LIO       0.226400
      5 C5          -4.7480    -3.4940     1.9870 c3         1 LIO      -0.034200
      6 C6          -5.0780    -2.0930     3.9070 c3         1 LIO       0.009767
      7 C7          -5.2910    -4.4740     4.1090 c3         1 LIO       0.009767
      8 C8          -3.1320    -3.4880     3.7600 c3         1 LIO       0.009767
      9 C11          1.7700    -1.3240     3.4510 c          1 LIO       0.691100
     10 C12          1.1690    -2.4890     4.1960 c3         1 LIO      -0.064400
     11 C13          1.6800    -2.4890     5.6380 c3         1 LIO      -0.024400
     12 C14          1.0700    -3.6710     6.3940 c3         1 LIO      -0.026400
     13 C15          1.5810    -3.6710     7.8360 c3         1 LIO      -0.028400
     14 C16          0.9720    -4.8530     8.5930 c3         1 LIO      -0.028400
     15 C17          1.4820    -4.8540    10.0350 c3         1 LIO      -0.029400
     16 C18          0.8730    -6.0360    10.7910 c3         1 LIO      -0.028400
     17 C19          1.3830    -6.0370    12.2340 c3         1 LIO      -0.029400
     18 C20          0.7740    -7.2190    12.9900 c3         1 LIO      -0.029400
     19 C21          1.2840    -7.2200    14.4320 c3         1 LIO      -0.029400
     20 C22          0.6740    -8.4020    15.1890 c3         1 LIO      -0.029400
     21 C23          1.1850    -8.4030    16.6310 c3         1 LIO      -0.030400
     22 C24          0.5750    -9.5850    17.3860 c3         1 LIO      -0.028400
     23 C25          1.0870    -9.5850    18.8290 c3         1 LIO       0.005900
     24 C32          2.7400    -2.3810    -2.7200 c3         1 LIO      -0.067400
     25 C33          2.9090    -2.0750    -4.2090 c3         1 LIO      -0.021400
     26 C34          3.4190    -3.3230    -4.9320 c3         1 LIO      -0.030400
     27 C35          3.5880    -3.0180    -6.4210 c3         1 LIO      -0.027400
     28 C36          4.0990    -4.2660    -7.1430 c3         1 LIO      -0.029400
     29 C37          4.2680    -3.9610    -8.6320 c3         1 LIO      -0.029400
     30 C38          4.7790    -5.2090    -9.3550 c3         1 LIO      -0.030400
     31 C39          4.9470    -4.9040   -10.8450 c3         1 LIO      -0.028400
     32 C40          5.4570    -6.1530   -11.5660 c3         1 LIO       0.006900
     33 N           -4.5630    -3.3870     3.4400 n4         1 LIO       0.062200
     34 O2           2.0140    -1.1840    -0.6850 os         1 LIO      -0.404900
     35 O3           1.4620    -1.1220     2.1600 os         1 LIO      -0.362900
     36 O11          2.5280    -0.5710     4.0150 o          1 LIO      -0.610000
     37 O31          2.0350    -0.1340    -2.6290 o          1 LIO      -0.595000
     38 O1P         -2.5910     0.2910     1.4760 o          1 LIO      -0.662500
     39 O2P         -2.5400    -1.0240    -0.6780 o          1 LIO      -0.662500
     40 O3P         -0.4760    -1.1050     0.7730 os         1 LIO      -0.443200
     41 O4P         -2.6900    -2.3370     1.4740 os         1 LIO      -0.491200
     42 P           -2.0840    -1.0430     0.7310 p5         1 LIO       0.896800
     43 H11         -0.3610     0.9260     0.4320 h1         1 LIO       0.028700
     44 H12         -0.3610    -0.0890    -1.0170 h1         1 LIO       0.028700
     45 H21          1.8910     0.8850    -0.5100 h1         1 LIO       0.038700
     46 H31          3.1210    -0.0890     1.4430 h1         1 LIO       0.010200
     47 H32          1.7540     0.9250     1.9270 h1         1 LIO       0.010200
     48 H41         -4.4930    -1.3740     1.7400 h1         1 LIO       0.048200
     49 H42         -4.3430    -2.3050     0.2430 h1         1 LIO       0.048200
     50 H51         -5.8070    -3.5190     1.7590 hx         1 LIO       0.064700
     51 H52         -4.2800    -4.4030     1.6290 hx         1 LIO       0.064700
     52 H61         -4.3310    -1.3260     3.7430 hx         1 LIO       0.070811
     53 H62         -5.3060    -2.1550     4.9640 hx         1 LIO       0.070811
     54 H63         -5.9780    -1.8430     3.3570 hx         1 LIO       0.070811
     55 H71         -5.1430    -4.4020     5.1790 hx         1 LIO       0.070811
     56 H72         -6.3470    -4.3930     3.8830 hx         1 LIO       0.070811
     57 H73         -4.9180    -5.4280     3.7560 hx         1 LIO       0.070811
     58 H81         -3.0110    -3.9110     4.7490 hx         1 LIO       0.070811
     59 H82         -2.6850    -2.5010     3.7320 hx         1 LIO       0.070811
     60 H83         -2.6440    -4.1250     3.0320 hx         1 LIO       0.070811
     61 H121         0.0900    -2.4000     4.1950 hc         1 LIO       0.027700
     62 H122         1.4560    -3.4140     3.7110 hc         1 LIO       0.027700
     63 H131         2.7600    -2.5770     5.6390 hc         1 LIO       0.031700
     64 H132         1.3930    -1.5630     6.1230 hc         1 LIO       0.031700
     65 H141         1.3570    -4.5970     5.9090 hc         1 LIO       0.004700
     66 H142        -0.0090    -3.5830     6.3930 hc         1 LIO       0.004700
     67 H151         1.2950    -2.7460     8.3210 hc         1 LIO       0.019700
     68 H152         2.6610    -3.7600     7.8370 hc         1 LIO       0.019700
     69 H161         1.2580    -5.7790     8.1080 hc         1 LIO       0.009700
     70 H162        -0.1080    -4.7650     8.5920 hc         1 LIO       0.009700
     71 H171         2.5620    -4.9430    10.0360 hc         1 LIO       0.017200
     72 H172         1.1950    -3.9290    10.5200 hc         1 LIO       0.017200
     73 H181        -0.2070    -5.9480    10.7900 hc         1 LIO       0.012200
     74 H182         1.1600    -6.9610    10.3060 hc         1 LIO       0.012200
     75 H191         1.0960    -5.1120    12.7190 hc         1 LIO       0.016200
     76 H192         2.4630    -6.1260    12.2350 hc         1 LIO       0.016200
     77 H201        -0.3060    -7.1310    12.9890 hc         1 LIO       0.013700
     78 H202         1.0600    -8.1440    12.5050 hc         1 LIO       0.013700
     79 H211         0.9970    -6.2950    14.9170 hc         1 LIO       0.015200
     80 H212         2.3640    -7.3090    14.4330 hc         1 LIO       0.015200
     81 H221        -0.4050    -8.3130    15.1880 hc         1 LIO       0.014200
     82 H222         0.9610    -9.3280    14.7040 hc         1 LIO       0.014200
     83 H231         2.2640    -8.4920    16.6320 hc         1 LIO       0.015200
     84 H232         0.8980    -7.4780    17.1160 hc         1 LIO       0.015200
     85 H241         0.8620   -10.5100    16.9010 hc         1 LIO       0.011700
     86 H242        -0.5040    -9.4960    17.3860 hc         1 LIO       0.011700
     87 H251         2.1690    -9.6460    18.8280 hc         1 LIO       0.000367
     88 H252         0.7770    -8.6720    19.3220 hc         1 LIO       0.000367
     89 H253         0.6780   -10.4380    19.3570 hc         1 LIO       0.000367
     90 H321         2.0260    -3.1860    -2.5950 hc         1 LIO       0.032200
     91 H322         3.6940    -2.6760    -2.3010 hc         1 LIO       0.032200
     92 H331         3.6230    -1.2700    -4.3330 hc         1 LIO       0.030200
     93 H332         1.9550    -1.7800    -4.6280 hc         1 LIO       0.030200
     94 H341         4.3730    -3.6190    -4.5130 hc         1 LIO       0.011200
     95 H342         2.7050    -4.1290    -4.8070 hc         1 LIO       0.011200
     96 H351         2.6340    -2.7230    -6.8400 hc         1 LIO       0.017200
     97 H352         4.3020    -2.2120    -6.5460 hc         1 LIO       0.017200
     98 H361         3.3850    -5.0720    -7.0180 hc         1 LIO       0.012700
     99 H362         5.0530    -4.5610    -6.7240 hc         1 LIO       0.012700
    100 H371         4.9820    -3.1550    -8.7570 hc         1 LIO       0.015200
    101 H372         3.3140    -3.6660    -9.0510 hc         1 LIO       0.015200
    102 H381         5.7340    -5.5040    -8.9360 hc         1 LIO       0.013700
    103 H382         4.0660    -6.0160    -9.2300 hc         1 LIO       0.013700
    104 H391         5.6600    -4.0980   -10.9700 hc         1 LIO       0.012700
    105 H392         3.9920    -4.6100   -11.2630 hc         1 LIO       0.012700
    106 H401         5.5560    -5.9430   -12.6240 hc         1 LIO      -0.000633
    107 H402         4.7550    -6.9650   -11.4230 hc         1 LIO      -0.000633
    108 H403         6.4220    -6.4340   -11.1620 hc         1 LIO      -0.000633
    109 C31          2.2370    -1.1500    -2.0080 c          1 LIO       0.698100
@<TRIPOS>BOND
     1     1     2 1   
     2     1    40 1   
     3     1    43 1   
     4     1    44 1   
     5     2     3 1   
     6     2    34 1   
     7     2    45 1   
     8     3    35 1   
     9     3    46 1   
    10     3    47 1   
    11     4     5 1   
    12     4    41 1   
    13     4    48 1   
    14     4    49 1   
    15     5    33 1   
    16     5    50 1   
    17     5    51 1   
    18     6    33 1   
    19     6    52 1   
    20     6    53 1   
    21     6    54 1   
    22     7    33 1   
    23     7    55 1   
    24     7    56 1   
    25     7    57 1   
    26     8    33 1   
    27     8    58 1   
    28     8    59 1   
    29     8    60 1   
    30     9    10 1   
    31     9    35 1   
    32     9    36 2   
    33    10    11 1   
    34    10    61 1   
    35    10    62 1   
    36    11    12 1   
    37    11    63 1   
    38    11    64 1   
    39    12    13 1   
    40    12    65 1   
    41    12    66 1   
    42    13    14 1   
    43    13    67 1   
    44    13    68 1   
    45    14    15 1   
    46    14    69 1   
    47    14    70 1   
    48    15    16 1   
    49    15    71 1   
    50    15    72 1   
    51    16    17 1   
    52    16    73 1   
    53    16    74 1   
    54    17    18 1   
    55    17    75 1   
    56    17    76 1   
    57    18    19 1   
    58    18    77 1   
    59    18    78 1   
    60    19    20 1   
    61    19    79 1   
    62    19    80 1   
    63    20    21 1   
    64    20    81 1   
    65    20    82 1   
    66    21    22 1   
    67    21    83 1   
    68    21    84 1   
    69    22    23 1   
    70    22    85 1   
    71    22    86 1   
    72    23    87 1   
    73    23    88 1   
    74    23    89 1   
    75    24    25 1   
    76    24    90 1   
    77    24    91 1   
    78    24   109 1   
    79    25    26 1   
    80    25    92 1   
    81    25    93 1   
    82    26    27 1   
    83    26    94 1   
    84    26    95 1   
    85    27    28 1   
    86    27    96 1   
    87    27    97 1   
    88    28    29 1   
    89    28    98 1   
    90    28    99 1   
    91    29    30 1   
    92    29   100 1   
    93    29   101 1   
    94    30    31 1   
    95    30   102 1   
    96    30   103 1   
    97    31    32 1   
    98    31   104 1   
    99    31   105 1   
   100    32   106 1   
   101    32   107 1   
   102    32   108 1   
   103    34   109 1   
   104    37   109 2   
   105    38    42 1   
   106    39    42 1   
   107    40    42 1   
   108    41    42 1   
@<TRIPOS>SUBSTRUCTURE
     1 LIO         1 TEMP              0 ****  ****    0 ROOT
