@<TRIPOS>MOLECULE
LIP
   27    25     1     0     0
SMALL
bcc


@<TRIPOS>ATOM
      1 C1         -0.4680    0.5180    0.5550 c1        1 LIP     -0.280000
      2 C2          2.4810   -0.5450   -0.0940 c3        1 LIP     -0.043000
      3 C3          2.3600   -0.3000    1.4140 c3        1 LIP     -0.040000
      4 C4          1.6690   -1.4720    2.1160 c3        1 LIP     -0.010000
      5 C5          0.1510   -1.1660    2.2320 c3        1 LIP      0.116000
      6 C6         -0.4250   -0.8020    0.9080 c2        1 LIP     -0.337000
      7 O1         -1.0020    0.8460   -0.6680 oh        1 LIP     -0.372000
      8 O2          2.5170    0.6930   -0.7790 oh        1 LIP     -0.373000
      9 O3          3.6460   -0.1210    2.0120 oh        1 LIP     -0.367000
     10 O4          2.2100   -1.7280    3.4100 oh        1 LIP     -0.363000
     11 O5         -0.5150   -2.3050    2.7750 oh        1 LIP     -0.335000
     12 O6         -0.7860   -1.8870    0.1140 oh        1 LIP     -0.303000
     13 O7         -3.7480    0.4850   -2.1010 o         1 LIP     -1.150667
     14 O8         -2.0900    2.4190   -2.2820 o         1 LIP     -1.150667
     15 O9         -1.7390    0.3050   -3.6590 o         1 LIP     -1.150667
     16 H1         -0.9590    1.8190   -0.6850 ho        1 LIP      0.241000
     17 H2          1.6070   -1.1630   -0.4420 h1        1 LIP      0.102500
     18 H3          3.4520   -1.0510   -0.3370 h1        1 LIP      0.102500
     19 H4          1.7490    0.6410    1.5740 h1        1 LIP      0.137000
     20 H5          1.8210   -2.4340    1.5560 h1        1 LIP      0.111000
     21 H6          0.0340   -0.3120    2.9610 h1        1 LIP      0.050000
     22 HO2         1.5980    1.0150   -0.7990 ho        1 LIP      0.247000
     23 HO3         4.0800    0.5550    1.4800 ho        1 LIP      0.193000
     24 HO4         2.4050   -0.8720    3.8060 ho        1 LIP      0.193000
     25 HO5         0.0410   -2.6140    3.4990 ho        1 LIP      0.166000
     26 HO6        -1.7460   -1.9560    0.1900 ho        1 LIP      0.165000
     27 P1         -2.4520    1.0120   -2.5750 p3        1 LIP      2.450000
@<TRIPOS>BOND
     1    1    6 1   
     2    1    7 1   
     3    2    3 1   
     4    2    8 1   
     5    2   17 1   
     6    2   18 1   
     7    3    4 1   
     8    3    9 1   
     9    3   19 1   
    10    4    5 1   
    11    4   10 1   
    12    4   20 1   
    13    5    6 1   
    14    5   11 1   
    15    5   21 1   
    16    6   12 1   
    17    7   16 1   
    18    8   22 1   
    19    9   23 1   
    20   10   24 1   
    21   11   25 1   
    22   12   26 1   
    23   13   27 1   
    24   14   27 1   
    25   15   27 1   
@<TRIPOS>SUBSTRUCTURE
     1 LIP         1 TEMP              0 ****  ****    0 ROOT
