@<TRIPOS>MOLECULE
molecule
   27    27     1     0     0
SMALL
bcc


@<TRIPOS>ATOM
      1 C1           0.0000     0.0000     0.0000 c3         1 LIP       0.227100
      2 C2           1.5300     0.0000     0.0000 c3         1 LIP       0.121600
      3 C3           2.0400     0.0000     1.4430 c3         1 LIP       0.116100
      4 C4           1.5290    -1.2490     2.1640 c3         1 LIP       0.132100
      5 C5          -0.0000    -1.2490     2.1630 c3         1 LIP       0.116100
      6 C6          -0.5100    -1.2490     0.7210 c3         1 LIP       0.121600
      7 O1          -0.4760    -0.0000    -1.3480 os         1 LIP      -0.548200
      8 O2           2.0060     1.1670    -0.6730 oh         1 LIP      -0.580300
      9 O3           3.4690    -0.0000     1.4430 oh         1 LIP      -0.620800
     10 O4           2.0050    -1.2490     3.5110 oh         1 LIP      -0.626800
     11 O5          -0.4770    -2.4160     2.8370 oh         1 LIP      -0.620800
     12 O6          -0.0340    -2.4150     0.0470 oh         1 LIP      -0.580300
     13 O7          -2.6750     1.3430    -1.0490 o          1 LIP      -0.901833
     14 O8          -0.5990     2.5120    -1.9810 o          1 LIP      -0.901833
     15 O9          -1.8440     0.7900    -3.4040 o          1 LIP      -0.901833
     16 H1          -0.3590     0.8830     0.5140 h1         1 LIP       0.059700
     17 H2           1.8890    -0.8870    -0.5080 h1         1 LIP       0.058700
     18 H3           1.6750     0.8830     1.9520 h1         1 LIP       0.048700
     19 H4           1.8880    -2.1320     1.6500 h1         1 LIP       0.062700
     20 H5          -0.3600    -0.3620     2.6710 h1         1 LIP       0.048700
     21 H6          -1.5940    -1.2460     0.7230 h1         1 LIP       0.058700
     22 HO2          2.6430     0.9170    -1.3230 ho         1 LIP       0.391000
     23 HO3          3.7830     0.7650     1.8940 ho         1 LIP       0.389500
     24 HO4          2.5210    -2.0240     3.6620 ho         1 LIP       0.390000
     25 HO5         -1.1350    -2.1700     3.4650 ho         1 LIP       0.389500
     26 HO6         -0.7670    -2.9340    -0.2410 ho         1 LIP       0.391000
     27 P1          -1.4040     1.1690    -1.9500 p5         1 LIP       1.160900
@<TRIPOS>BOND
     1     1     2 1
     2     1     6 1
     3     1     7 1
     4     1    16 1
     5     2     3 1
     6     2     8 1
     7     2    17 1
     8     3     4 1
     9     3     9 1
    10     3    18 1
    11     4     5 1
    12     4    10 1
    13     4    19 1
    14     5     6 1
    15     5    11 1
    16     5    20 1
    17     6    12 1
    18     6    21 1
    19    27     7 1
    20    27    13 1
    21    27    14 1
    22    27    15 1
    23     8    22 1
    24     9    23 1
    25    10    24 1
    26    11    25 1
    27    12    26 1
@<TRIPOS>SUBSTRUCTURE
     1 LIP         1 TEMP              0 ****  ****    0 ROOT
