@<TRIPOS>MOLECULE
molecule
   87    89     1     0     0
SMALL
bcc


@<TRIPOS>ATOM
      1 C7           0.0000     0.0000     0.0000 c3         1 LIQ      -0.201600
      2 C10         -3.1440     0.0000     2.7260 c3         1 LIQ       0.082700
      3 N12         -5.1620    -1.3300     2.1990 ns         1 LIQ      -0.585900
      4 C13         -6.6000    -1.4500     1.9460 c3         1 LIQ       0.117700
      5 C15         -6.5450     0.2760     0.1670 ca         1 LIQ      -0.020300
      6 C17         -7.1960     2.5790     0.0260 ca         1 LIQ       0.181900
      7 C20         -5.2710     0.6110    -0.2510 ca         1 LIQ      -0.178000
      8 C21         -7.0600    -2.8690     2.2850 c3         1 LIQ       0.135100
      9 C22         -8.5810    -2.9600     2.1400 c3         1 LIQ       0.127800
     10 C24        -10.4960    -4.3060     2.4160 c3         1 LIQ       0.195100
     11 C26        -11.1510    -6.6730     1.9350 ca         1 LIQ      -0.102000
     12 C1           3.5700    -0.0000    -1.4430 c3         1 LIQ      -0.085400
     13 C1A          4.0790    -0.0000    -2.8860 c3         1 LIQ      -0.091100
     14 C2           2.0400    -0.0000    -1.4430 c3         1 LIQ      -0.072400
     15 C3           1.5300     0.0000     0.0000 c3         1 LIQ      -0.061400
     16 S8          -0.6030     0.0000     1.7110 s6         1 LIQ       1.105000
     17 O1          -0.2440     1.2270     2.3280 o          1 LIQ      -0.616300
     18 O2          -0.2440    -1.2290     2.3280 o          1 LIQ      -0.616300
     19 C9          -2.3900    -0.0000     1.3950 c3         1 LIQ      -0.234600
     20 C11         -4.6230    -0.1230     2.4650 c          1 LIQ       0.646100
     21 O3          -5.3290     0.8630     2.4960 o          1 LIQ      -0.557100
     22 C14         -6.8840    -1.1600     0.4710 c3         1 LIQ      -0.045100
     23 C16         -7.5090     1.2580     0.3010 ca         1 LIQ      -0.178000
     24 C18         -5.9210     2.9150    -0.3930 ca         1 LIQ      -0.198000
     25 C19         -4.9570     1.9300    -0.5320 ca         1 LIQ       0.181900
     26 O4          -6.4410    -3.7970     1.3930 oh         1 LIQ      -0.594800
     27 N23         -9.0360    -4.2850     2.5800 n7         1 LIQ      -0.790200
     28 C25        -11.0320    -5.6460     2.8520 ca         1 LIQ      -0.087300
     29 C27        -11.6390    -7.9030     2.3360 ca         1 LIQ      -0.080300
     30 C29        -12.0140    -8.1020     3.6510 ca         1 LIQ      -0.123000
     31 C30        -11.8990    -7.0740     4.5670 ca         1 LIQ      -0.126000
     32 C31        -11.4080    -5.8450     4.1680 ca         1 LIQ      -0.131000
     33 C32        -13.1450    -8.9740     0.6830 c3         1 LIQ      -0.089100
     34 N40         -2.8760     1.2520     3.4380 ns         1 LIQ      -0.580900
     35 C41         -3.2080     2.4310     2.8770 c          1 LIQ       0.699700
     36 O5          -3.7280     2.4560     1.7790 o          1 LIQ      -0.589100
     37 F19         -3.7110     2.2570    -0.9420 f          1 LIQ      -0.142900
     38 F17         -8.1370     3.5380     0.1620 f          1 LIQ      -0.142900
     39 C43         -2.9370     3.6940     3.5960 ca         1 LIQ      -0.258900
     40 C45         -2.3450     3.6780     4.8590 ca         1 LIQ       0.449200
     41 N44         -2.0990     4.8040     5.4980 nb         1 LIQ      -0.697000
     42 C46         -2.4080     5.9790     4.9840 ca         1 LIQ       0.439200
     43 C47         -3.0030     6.0790     3.7380 ca         1 LIQ      -0.266300
     44 C48         -3.2770     4.9260     3.0240 ca         1 LIQ      -0.031000
     45 H71         -0.3610    -0.8850    -0.5100 h1         1 LIQ       0.099200
     46 H72         -0.3610     0.8850    -0.5100 h1         1 LIQ       0.099200
     47 H10         -2.8120    -0.8360     3.3300 h1         1 LIQ       0.075700
     48 HN12        -4.5880    -2.1490     2.2180 hn         1 LIQ       0.315500
     49 H13         -7.1360    -0.7390     2.5640 h1         1 LIQ       0.086700
     50 H20         -4.5170    -0.1600    -0.3610 ha         1 LIQ       0.136500
     51 H21         -6.7790    -3.1060     3.3040 h1         1 LIQ       0.037700
     52 H221        -8.8550    -2.8100     1.1030 h1         1 LIQ       0.048200
     53 H222        -9.0480    -2.1970     2.7510 h1         1 LIQ       0.048200
     54 H241       -10.7450    -4.1390     1.3750 h1         1 LIQ       0.041700
     55 H242       -10.9380    -3.5250     3.0230 h1         1 LIQ       0.041700
     56 H281       -11.0000    -8.9190     0.5780 hc         1 LIQ       0.048200
     57 H282       -11.6400    -9.9750     1.8450 hc         1 LIQ       0.048200
     58 H11          3.9370     0.8810    -0.9310 hc         1 LIQ       0.042700
     59 H12          3.9260    -0.8880    -0.9350 hc         1 LIQ       0.042700
     60 H1A1         5.1620    -0.0000    -2.8870 hc         1 LIQ       0.034367
     61 H1A2         3.7170    -0.8850    -3.3970 hc         1 LIQ       0.034367
     62 H1A3         3.7170     0.8840    -3.3970 hc         1 LIQ       0.034367
     63 H21A         1.6790     0.8840    -1.9540 hc         1 LIQ       0.044700
     64 H22          1.6790    -0.8850    -1.9540 hc         1 LIQ       0.044700
     65 H31A         1.8910    -0.8840     0.5110 hc         1 LIQ       0.058200
     66 H32          1.8910     0.8850     0.5100 hc         1 LIQ       0.058200
     67 H91         -2.6560    -0.8850     0.8290 h1         1 LIQ       0.123700
     68 H92         -2.6560     0.8840     0.8280 h1         1 LIQ       0.123700
     69 H141        -7.9330    -1.3340     0.2640 hc         1 LIQ       0.065200
     70 H142        -6.2800    -1.8120    -0.1480 hc         1 LIQ       0.065200
     71 H16         -8.5080     0.9940     0.6290 ha         1 LIQ       0.136500
     72 H18         -5.6760     3.9470    -0.6100 ha         1 LIQ       0.152000
     73 HO4         -6.0580    -4.5020     1.8880 ho         1 LIQ       0.409000
     74 HN23        -8.8070    -4.4140     3.5450 hn         1 LIQ       0.348800
     75 H29        -12.3980    -9.0660     3.9640 ha         1 LIQ       0.131000
     76 H30        -12.1940    -7.2310     5.5970 ha         1 LIQ       0.129000
     77 H31        -11.3170    -5.0390     4.8850 ha         1 LIQ       0.125000
     78 H321       -13.1500    -8.2140    -0.0890 hc         1 LIQ       0.036367
     79 H322       -13.3940    -9.9340     0.2470 hc         1 LIQ       0.036367
     80 H323       -13.8750    -8.7220     1.4420 hc         1 LIQ       0.036367
     81 HN40        -2.4710     1.2300     4.3530 hn         1 LIQ       0.329500
     82 H45         -2.0770     2.7330     5.3140 h4         1 LIQ       0.017100
     83 H46         -2.1910     6.8800     5.5440 h4         1 LIQ       0.024100
     84 H47         -3.2520     7.0500     3.3270 ha         1 LIQ       0.143000
     85 H48         -3.7420     4.9750     2.0460 ha         1 LIQ       0.163000
     86 H26        -10.8290    -6.5250     0.9110 ha         1 LIQ       0.138000
     87 C28        -11.7640    -9.0250     1.3380 c3         1 LIQ      -0.039100
@<TRIPOS>BOND
     1     1    15 1
     2     1    16 1
     3     1    45 1
     4     1    46 1
     5     2    19 1
     6     2    20 1
     7     2    34 1
     8     2    47 1
     9     3     4 1
    10     3    20 1
    11     3    48 1
    12     4     8 1
    13     4    22 1
    14     4    49 1
    15     5     7 ar
    16     5    22 1
    17     5    23 ar
    18     6    23 ar
    19     6    24 ar
    20     6    38 1
    21     7    25 ar
    22     7    50 1
    23     8     9 1
    24     8    26 1
    25     8    51 1
    26     9    27 1
    27     9    52 1
    28     9    53 1
    29    10    27 1
    30    10    28 1
    31    10    54 1
    32    10    55 1
    33    11    28 ar
    34    11    29 ar
    35    11    86 1
    36    87    29 1
    37    87    33 1
    38    87    56 1
    39    87    57 1
    40    12    13 1
    41    12    14 1
    42    12    58 1
    43    12    59 1
    44    13    60 1
    45    13    61 1
    46    13    62 1
    47    14    15 1
    48    14    63 1
    49    14    64 1
    50    15    65 1
    51    15    66 1
    52    16    17 2
    53    16    18 2
    54    16    19 1
    55    19    67 1
    56    19    68 1
    57    20    21 2
    58    22    69 1
    59    22    70 1
    60    23    71 1
    61    24    25 ar
    62    24    72 1
    63    25    37 1
    64    26    73 1
    65    27    74 1
    66    28    32 ar
    67    29    30 ar
    68    30    31 ar
    69    30    75 1
    70    31    32 ar
    71    31    76 1
    72    32    77 1
    73    33    78 1
    74    33    79 1
    75    33    80 1
    76    34    35 1
    77    34    81 1
    78    35    36 2
    79    35    39 1
    80    39    40 ar
    81    39    44 ar
    82    40    41 ar
    83    40    82 1
    84    41    42 ar
    85    42    43 ar
    86    42    83 1
    87    43    44 ar
    88    43    84 1
    89    44    85 1
@<TRIPOS>SUBSTRUCTURE
     1 LIQ         1 TEMP              0 ****  ****    0 ROOT
