@<TRIPOS>MOLECULE
molecule
   49    52     1     0     0
SMALL
bcc


@<TRIPOS>ATOM
      1 C4           0.0000     0.0000     0.0000 c          1 LIR       0.745100
      2 C7           3.5980    -0.0010     0.1400 cz         1 LIR       0.108400
      3 N12          4.8820    -0.0010     0.6660 nh         1 LIR      -0.309400
      4 C13          5.6260    -1.2470     0.9880 c3         1 LIR      -0.051700
      5 C15          6.8480     0.0050     2.7880 c3         1 LIR      -0.530400
      6 C17          5.6120     1.2560     0.9640 c3         1 LIR       0.027300
      7 C20          4.5240    -1.4220    -2.6580 ca         1 LIR      -0.111300
      8 C21          3.4770    -2.3320    -2.7590 ca         1 LIR      -0.122000
      9 C22          3.7430    -3.6540    -3.1130 ca         1 LIR      -0.089000
     10 C24          6.0990    -3.1410    -3.2630 ca         1 LIR      -0.080000
     11 C1           0.8890    -0.0040    -2.2300 c          1 LIR       0.743100
     12 C2           1.9120    -0.0020    -1.2620 cc         1 LIR      -0.141900
     13 C3           1.4090     0.0000     0.0000 cd         1 LIR      -0.126900
     14 N5          -0.2490    -0.0010    -1.3910 n          1 LIR      -0.524400
     15 N6           3.2680    -0.0020    -1.1660 na         1 LIR       0.139900
     16 N8           2.4600     0.0000     0.8630 na         1 LIR      -0.059100
     17 O9           0.9150    -0.0050    -3.4520 o          1 LIR      -0.444500
     18 O10         -0.8170    -0.0020     0.9100 o          1 LIR      -0.457500
     19 C11         -1.5920    -0.0020    -1.9430 c3         1 LIR       0.083300
     20 C14          6.0350    -1.2530     2.4600 c3         1 LIR       0.216500
     21 C16          6.0740     1.2710     2.4200 c3         1 LIR      -0.162400
     22 N18          6.8210    -2.4470     2.7570 nz         1 LIR      -0.800600
     23 C19          4.1990    -0.0040    -2.2730 c3         1 LIR      -0.018400
     24 C23          5.0530    -4.0580    -3.3650 ca         1 LIR      -0.101000
     25 C25          5.8330    -1.8180    -2.9080 ca         1 LIR       0.003000
     26 N27          7.8170    -0.1630    -2.7260 n1         1 LIR      -0.303800
     27 H131         5.0620    -1.8140     1.7190 h1         1 LIR       0.095700
     28 H132         5.7310    -1.8360     0.0840 h1         1 LIR       0.095700
     29 H151         7.2250    -0.0750     3.8000 hc         1 LIR       0.181200
     30 H152         6.2000     0.8700     2.7160 hc         1 LIR       0.181200
     31 H171         5.0230     1.8480     1.6540 h1         1 LIR       0.152700
     32 H172         5.7460     1.8090     0.0420 h1         1 LIR       0.152700
     33 H21          2.4590    -2.0060    -2.5860 ha         1 LIR       0.138000
     34 H22          2.9290    -4.3620    -3.2120 ha         1 LIR       0.167000
     35 H24          7.0850    -3.5430    -3.4650 ha         1 LIR       0.173000
     36 HN8          2.3970    -0.0220     1.8610 hn         1 LIR       0.368700
     37 H111        -1.9950     1.0030    -1.9120 h1         1 LIR       0.079700
     38 H112        -2.2220    -0.6630    -1.3610 h1         1 LIR       0.079700
     39 H113        -1.5590    -0.3460    -2.9700 h1         1 LIR       0.079700
     40 H14          5.1390    -1.2570     3.0700 hx         1 LIR       0.077700
     41 H161         6.6270     2.1350     2.7700 hc         1 LIR       0.156200
     42 H162         5.9780     1.3230     1.3420 hc         1 LIR       0.156200
     43 H181         7.5040    -2.5840     2.0390 hn         1 LIR       0.470800
     44 H182         7.2820    -2.3330     3.6380 hn         1 LIR       0.470800
     45 H191         4.2890     0.1080    -1.1990 h1         1 LIR       0.130700
     46 H192         4.8880     0.6710    -2.7660 h1         1 LIR       0.130700
     47 H23          5.2590    -5.0850    -3.6420 ha         1 LIR       0.173000
     48 C26          6.9220    -0.8950    -2.8090 cg         1 LIR       0.187800
     49 H183         6.2790    -3.2630     2.5520 hn         1 LIR       0.470800
@<TRIPOS>BOND
     1     1    14 1
     2     1    13 1
     3     1    18 2
     4     2    15 1
     5     2     3 2
     6     2    16 1
     7     3     4 1
     8     3     6 1
     9     4    20 1
    10     4    27 1
    11     4    28 1
    12     5    20 1
    13     5    21 1
    14     5    29 1
    15     5    30 1
    16     6    21 1
    17     6    31 1
    18     6    32 1
    19     7     8 ar
    20     7    25 ar
    21     7    23 1
    22     8     9 ar
    23     8    33 1
    24     9    24 ar
    25     9    34 1
    26    10    24 ar
    27    10    25 ar
    28    10    35 1
    29    48    25 1
    30    48    26 3
    31    11    17 2
    32    11    12 1
    33    11    14 1
    34    12    15 1
    35    12    13 2
    36    13    16 1
    37    14    19 1
    38    15    23 1
    39    16    36 1
    40    19    37 1
    41    19    38 1
    42    19    39 1
    43    20    22 1
    44    20    40 1
    45    21    41 1
    46    21    42 1
    47    22    43 1
    48    22    44 1
    49    23    45 1
    50    23    46 1
    51    24    47 1
    52    49    22 1
@<TRIPOS>SUBSTRUCTURE
     1 LIR         1 TEMP              0 ****  ****    0 ROOT
