@<TRIPOS>MOLECULE
LIS
   18    18     1     0     0
SMALL
bcc


@<TRIPOS>ATOM
      1 N            0.0000     0.0000     0.0000 nz         1 LIS       0.050400
      2 CA           1.4690     0.0000     0.0000 c3         1 LIS      -0.197500
      3 CB           1.9790     0.0000     1.4410 c3         1 LIS       0.003600
      4 CG           1.4690     1.2480     2.1630 cx         1 LIS       0.029100
      5 C            1.9700    -1.2300    -0.7110 c          1 LIS       0.951600
      6 CD           1.8950     1.4560     3.6170 cx         1 LIS       0.158400
      7 OXT          1.3180    -2.2460    -0.6950 o          1 LIS      -0.808300
      8 O            3.1430    -1.1970    -1.3620 o          1 LIS      -0.808300
      9 OD1          2.4290     2.2360     2.5430 op         1 LIS      -0.366600
     10 HN1         -0.3340    -0.0040     0.9440 hn         1 LIS       0.215467
     11 HN2         -0.3340     0.8190    -0.4680 hn         1 LIS       0.215467
     12 HA           1.8300     0.8850    -0.5110 hx         1 LIS       0.093700
     13 HBC1         3.0620    -0.0000     1.4400 hc         1 LIS       0.063200
     14 HBC2         1.6180    -0.8850     1.9510 hc         1 LIS       0.063200
     15 HG           0.4890     1.6380     1.9160 h1         1 LIS       0.028700
     16 HDC1         1.1750     1.9590     4.2500 h1         1 LIS       0.045200
     17 HDC2         2.5580     0.7030     4.0240 h1         1 LIS       0.045200
     18 HN3         -0.3340    -0.8050    -0.4920 hn         1 LIS       0.215467
@<TRIPOS>BOND
     1     1     2 1   
     2     1    10 1   
     3     1    11 1   
     4     1    18 1   
     5     2     3 1   
     6     2     5 1   
     7     2    12 1   
     8     3     4 1   
     9     3    13 1   
    10     3    14 1   
    11     4     6 1   
    12     4     9 1   
    13     4    15 1   
    14     5     7 1   
    15     5     8 1   
    16     6     9 1   
    17     6    16 1   
    18     6    17 1   
@<TRIPOS>SUBSTRUCTURE
     1 LIS         1 TEMP              0 ****  ****    0 ROOT
