@<TRIPOS>MOLECULE
LIT
   22    23     1     0     0
SMALL
bcc


@<TRIPOS>ATOM
      1 C1         -0.0340   -0.0030    0.0170 cc        1 LIT      0.081200
      2 C2          1.3590    0.0500    0.0100 cd        1 LIT     -0.115300
      3 C3          1.7670    0.0450    1.3780 cd        1 LIT     -0.298300
      4 C4          0.6020   -0.0110    2.1500 cc        1 LIT      0.351700
      5 C5          0.4020   -0.0390    3.5530 cc        1 LIT      0.247400
      6 N6         -0.6960   -0.0930    4.3520 nd        1 LIT     -0.250000
      7 N7         -0.3270   -0.0980    5.5950 nd        1 LIT     -0.421000
      8 C8          1.0540   -0.0450    5.6790 cc        1 LIT      0.480700
      9 S9          2.0320   -0.0270    7.0180 ss        1 LIT      0.088600
     10 C10         3.6440    0.0470    6.2620 c3        1 LIT     -0.215300
     11 C11         4.4190    0.0570    7.5870 c         1 LIT      0.919600
     12 O12         5.6590    0.1040    7.6620 o         1 LIT     -0.765300
     13 O13         3.5870    0.0100    8.5700 o         1 LIT     -0.765300
     14 O14         1.5600   -0.0060    4.3760 os        1 LIT     -0.388800
     15 O15        -0.5320   -0.0420    1.3370 os        1 LIT     -0.293800
     16 N16        -0.9950   -0.0240   -1.0670 no        1 LIT      0.250500
     17 O17        -0.5680    0.0090   -2.1960 o         1 LIT     -0.211000
     18 O18        -2.1720   -0.0720   -0.8320 o         1 LIT     -0.211000
     19 H101        3.8160    0.9650    5.6650 h1        1 LIT      0.075700
     20 H102        3.8860   -0.8380    5.6380 h1        1 LIT      0.075700
     21 H3          2.7850    0.0790    1.7580 ha        1 LIT      0.185000
     22 H2          2.0000    0.0880   -0.8700 ha        1 LIT      0.179000
@<TRIPOS>BOND
     1    1    2 2
     2    1   15 1
     3    1   16 1
     4    2    3 1
     5    2   22 1
     6    3    4 2
     7    3   21 1
     8    4    5 1
     9    4   15 1
    10    5    6 2
    11    5   14 1
    12    6    7 1
    13    7    8 2
    14    8    9 1
    15    8   14 1
    16    9   10 1
    17   10   11 1
    18   10   19 1
    19   10   20 1
    20   11   12 1
    21   11   13 1
    22   16   17 1
    23   16   18 1
@<TRIPOS>SUBSTRUCTURE
     1 LIT         1 TEMP              0 ****  ****    0 ROOT
