@<TRIPOS>MOLECULE
molecule
   77    80     1     0     0
SMALL
bcc


@<TRIPOS>ATOM
      1 C1           0.0000     0.0000     0.0000 c3         1 LIU      -0.076900
      2 C2           1.5430     0.0000     0.0000 c3         1 LIU      -0.064000
      3 C3           2.0330     0.0000     1.4630 c3         1 LIU      -0.076900
      4 C4           1.4220     1.1210     2.3050 c3         1 LIU       0.227300
      5 N5          -0.0430     1.1090     2.2000 nh         1 LIU      -0.712000
      6 C6          -0.6060     1.1200     0.8470 c3         1 LIU       0.227300
      7 C7           2.0920     1.2180    -0.7670 c3         1 LIU      -0.083600
      8 C8           2.0480    -1.2730    -0.7030 c3         1 LIU      -0.083600
      9 C9          -0.7680     1.6860     3.2510 ca         1 LIU       0.201600
     10 C10         -0.6440     1.2030     4.5680 ca         1 LIU      -0.185500
     11 C11         -1.3670     1.7770     5.6140 ca         1 LIU      -0.054000
     12 C12         -2.2270     2.8460     5.3630 ca         1 LIU      -0.194600
     13 C13         -2.3640     3.3400     4.0650 ca         1 LIU      -0.054000
     14 C14         -1.6420     2.7670     3.0190 ca         1 LIU      -0.185500
     15 C15         -2.9790     3.4450     6.4530 c          1 LIU       0.709700
     16 O16         -2.5710     3.4180     7.6240 o          1 LIU      -0.543100
     17 N17         -4.2290     4.0820     6.1080 ns         1 LIU      -0.660300
     18 S18         -5.2930     4.8550     7.2090 sy         1 LIU       1.313900
     19 C19         -4.5470     6.4520     7.3390 ca         1 LIU      -0.330500
     20 C20         -3.5880     6.6730     8.3130 ca         1 LIU       0.063000
     21 C21         -2.9980     7.9330     8.4160 ca         1 LIU      -0.226200
     22 C22         -3.3780     8.9530     7.5430 ca         1 LIU       0.288600
     23 C23         -4.3450     8.7130     6.5670 ca         1 LIU      -0.199000
     24 C24         -4.9340     7.4530     6.4650 ca         1 LIU       0.021000
     25 N25         -2.7960    10.2390     7.6260 nu         1 LIU      -0.843600
     26 C26         -2.0730    10.8320     6.5470 c3         1 LIU       0.280200
     27 C27         -1.3660     9.7280     5.7320 c3         1 LIU      -0.019300
     28 S28         -0.3650    10.3210     4.3270 ss         1 LIU      -0.233000
     29 C29          0.2270     8.7750     3.7150 ca         1 LIU       0.035900
     30 C30         -0.1380     7.5720     4.3400 ca         1 LIU      -0.132000
     31 C31          0.3290     6.3510     3.8560 ca         1 LIU      -0.113500
     32 C32          1.1660     6.3150     2.7400 ca         1 LIU      -0.137000
     33 C33          1.5360     7.5040     2.1090 ca         1 LIU      -0.113500
     34 C34          1.0700     8.7250     2.5930 ca         1 LIU      -0.132000
     35 N35         -2.0140     8.1520     9.4210 no         1 LIU       0.283200
     36 O36         -1.4850     9.2830     9.5120 o          1 LIU      -0.204000
     37 O37         -1.7060     7.2050    10.1810 o          1 LIU      -0.204000
     38 O38         -6.5820     5.0470     6.5730 o          1 LIU      -0.579300
     39 O39         -5.1980     4.2040     8.5010 o          1 LIU      -0.579300
     40 C40         -1.0080    11.7630     7.1490 c3         1 LIU      -0.107600
     41 C41         -3.0410    11.6680     5.7000 c3         1 LIU      -0.107600
     42 H11A        -0.3460     0.1130    -1.0200 hc         1 LIU       0.050700
     43 H12         -0.3460    -0.9510     0.3860 hc         1 LIU       0.050700
     44 H31A         1.7760    -0.9510     1.9130 hc         1 LIU       0.050700
     45 H32A         3.1100     0.1120     1.4660 hc         1 LIU       0.050700
     46 H41          1.7060     0.9810     3.3420 h1         1 LIU       0.038950
     47 H42          1.7960     2.0750     1.9530 h1         1 LIU       0.038950
     48 H61         -1.6790     0.9790     0.9080 h1         1 LIU       0.038950
     49 H62         -0.3930     2.0740     0.3800 h1         1 LIU       0.038950
     50 H71          3.1750     1.1900    -0.7590 hc         1 LIU       0.036533
     51 H72          1.7510     2.1290    -0.2900 hc         1 LIU       0.036533
     52 H73          1.7370     1.1910    -1.7900 hc         1 LIU       0.036533
     53 H81          1.6770    -2.1460    -0.1800 hc         1 LIU       0.036533
     54 H82          1.6920    -1.2870    -1.7260 hc         1 LIU       0.036533
     55 H83          3.1310    -1.2830    -0.6970 hc         1 LIU       0.036533
     56 H10          0.0220     0.3730     4.7720 ha         1 LIU       0.142500
     57 H11         -1.2610     1.3930     6.6220 ha         1 LIU       0.143500
     58 H13         -3.0320     4.1710     3.8700 ha         1 LIU       0.143500
     59 H14         -1.7550     3.1570     2.0150 ha         1 LIU       0.142500
     60 HN17        -4.4980     4.0700     5.1440 hn         1 LIU       0.330500
     61 H20         -3.2980     5.8760     8.9880 ha         1 LIU       0.203000
     62 H23         -4.6400     9.5050     5.8890 ha         1 LIU       0.162000
     63 H24         -5.6850     7.2590     5.7100 ha         1 LIU       0.161000
     64 HN25        -2.8970    10.7560     8.4770 hn         1 LIU       0.465800
     65 H271        -2.1210     9.0520     5.3500 h1         1 LIU       0.070200
     66 H272        -0.7180     9.1740     6.4010 h1         1 LIU       0.070200
     67 H30         -0.7880     7.5920     5.2060 ha         1 LIU       0.135000
     68 H31          0.0420     5.4280     4.3460 ha         1 LIU       0.135000
     69 H32          1.5290     5.3660     2.3640 ha         1 LIU       0.130000
     70 H33          2.1860     7.4770     1.2430 ha         1 LIU       0.135000
     71 H34          1.3600     9.6450     2.1000 ha         1 LIU       0.135000
     72 H401        -1.4930    12.5330     7.7370 hc         1 LIU       0.049533
     73 H402        -0.3430    11.1890     7.7820 hc         1 LIU       0.049533
     74 H403        -0.4390    12.2240     6.3510 hc         1 LIU       0.049533
     75 H411        -2.5060    12.4960     5.2520 hc         1 LIU       0.049533
     76 H412        -3.8350    12.0490     6.3300 hc         1 LIU       0.049533
     77 H413        -3.4650    11.0480     4.9190 hc         1 LIU       0.049533
@<TRIPOS>BOND
     1    40    26 1
     2    36    35 1
     3    27    26 1
     4    27    28 1
     5    26    25 1
     6    26    41 1
     7    37    35 1
     8    25    22 1
     9    35    21 1
    10    28    29 1
    11    34    33 ar
    12    34    29 ar
    13    22    21 ar
    14    22    23 ar
    15    21    20 ar
    16    33    32 ar
    17    29    30 ar
    18    23    24 ar
    19    20    19 ar
    20    32    31 ar
    21    30    31 ar
    22    24    19 ar
    23    19    18 1
    24    39    18 2
    25    18    17 1
    26    18    38 2
    27    16    15 2
    28    17    15 1
    29    15    12 1
    30     7     2 1
    31    12    11 ar
    32    12    13 ar
    33    11    10 ar
    34     3     4 1
    35     3     2 1
    36    13    14 ar
    37    10     9 ar
    38    14     9 ar
    39     9     5 1
    40     4     5 1
    41     2     1 1
    42     2     8 1
    43     5     6 1
    44     1     6 1
    45     1    42 1
    46     1    43 1
    47     3    44 1
    48     3    45 1
    49     4    46 1
    50     4    47 1
    51     6    48 1
    52     6    49 1
    53     7    50 1
    54     7    51 1
    55     7    52 1
    56     8    53 1
    57     8    54 1
    58     8    55 1
    59    10    56 1
    60    11    57 1
    61    13    58 1
    62    14    59 1
    63    17    60 1
    64    20    61 1
    65    23    62 1
    66    24    63 1
    67    25    64 1
    68    27    65 1
    69    27    66 1
    70    30    67 1
    71    31    68 1
    72    32    69 1
    73    33    70 1
    74    34    71 1
    75    40    72 1
    76    40    73 1
    77    40    74 1
    78    41    75 1
    79    41    76 1
    80    41    77 1
@<TRIPOS>SUBSTRUCTURE
     1 LIU         1 TEMP              0 ****  ****    0 ROOT
