@<TRIPOS>MOLECULE
molecule
   93    98     1     0     0
SMALL
bcc


@<TRIPOS>ATOM
      1 C            0.0000     0.0000     0.0000 ca         1 LIW      -0.184500
      2 C1           1.4100     0.0000     0.0000 ca         1 LIW       0.202600
      3 C2           2.0710     0.0000     1.2440 ca         1 LIW      -0.184500
      4 C3           1.3530    -0.0010     2.4400 ca         1 LIW      -0.054500
      5 C4          -0.0420    -0.0020     2.4160 ca         1 LIW      -0.193600
      6 C5          -0.7180    -0.0010     1.1950 ca         1 LIW      -0.054500
      7 N            2.1300     0.0010    -1.2000 nh         1 LIW      -0.716000
      8 C6          -0.7900    -0.0010     3.6630 c          1 LIW       0.709700
      9 N1          -2.1100    -0.5870     3.6290 ns         1 LIW      -0.660300
     10 S           -3.1830    -0.7060     4.9610 sy         1 LIW       1.313900
     11 C7          -3.9230     0.8990     4.9480 ca         1 LIW      -0.330500
     12 C8           3.4490    -0.6350    -1.2570 c3         1 LIW       0.225800
     13 C9           3.8230    -0.9720    -2.7020 c3         1 LIW       0.151300
     14 N2           3.7210     0.2130    -3.5630 n3         1 LIW      -0.720600
     15 C10          2.3460     0.7260    -3.5450 c3         1 LIW       0.151300
     16 C11          1.9250     1.1200    -2.1280 c3         1 LIW       0.225800
     17 C12          4.1330    -0.1070    -4.9290 c3         1 LIW       0.203100
     18 O           -0.3250     0.4800     4.7060 o          1 LIW      -0.541100
     19 O1          -4.2330    -1.6540     4.6450 o          1 LIW      -0.579300
     20 O2          -2.4130    -0.8390     6.1830 o          1 LIW      -0.579300
     21 C13         -3.3390     1.9200     5.6770 ca         1 LIW       0.063000
     22 C14         -3.9240     3.1860     5.6660 ca         1 LIW      -0.225200
     23 C15         -5.0840     3.4120     4.9250 ca         1 LIW       0.288600
     24 C16         -5.6590     2.3710     4.1960 ca         1 LIW      -0.199000
     25 C17         -5.0740     1.1050     4.2070 ca         1 LIW       0.021000
     26 N3          -3.3170     4.2300     6.4190 no         1 LIW       0.282200
     27 O3          -2.2750     3.9790     7.0700 o          1 LIW      -0.204000
     28 O4          -3.8420     5.3680     6.4090 o          1 LIW      -0.204000
     29 N4          -5.6960     4.6850     4.8980 nu         1 LIW      -0.842600
     30 C18         -5.8780     5.4300     3.6920 c3         1 LIW       0.280200
     31 C19         -5.8340     6.9240     4.0500 c3         1 LIW      -0.107600
     32 C20         -4.7270     5.1170     2.7140 c3         1 LIW      -0.019300
     33 S1          -4.7900     6.0160     1.1280 ss         1 LIW      -0.233000
     34 C21         -3.3370     5.3670     0.3640 ca         1 LIW       0.035900
     35 C22         -2.5380     4.4260     1.0320 ca         1 LIW      -0.132000
     36 C23         -1.3900     3.9120     0.4280 ca         1 LIW      -0.113000
     37 C24         -1.0270     4.3340    -0.8510 ca         1 LIW      -0.138000
     38 C25         -1.8110     5.2680    -1.5260 ca         1 LIW      -0.113000
     39 C26         -2.9590     5.7820    -0.9230 ca         1 LIW      -0.132000
     40 C27         -7.2590     5.1010     3.1080 c3         1 LIW      -0.107600
     41 C28          7.2310    -2.1330    -5.7780 ca         1 LIW      -0.116000
     42 C29          8.2030    -1.4410    -5.0540 ca         1 LIW      -0.129000
     43 C30          7.8460    -0.3240    -4.2980 ca         1 LIW      -0.132000
     44 C31          6.5180     0.1010    -4.2650 ca         1 LIW      -0.111000
     45 C32          5.5520    -0.5940    -4.9890 ca         1 LIW      -0.079300
     46 C33          5.9030    -1.7080    -5.7440 cp         1 LIW      -0.040000
     47 C34          4.2340    -3.5090    -5.9150 ca         1 LIW      -0.116500
     48 C35          3.2810    -4.2180    -6.6480 ca         1 LIW      -0.130000
     49 C36          3.0090    -3.8600    -7.9680 ca         1 LIW      -0.127000
     50 C37          3.6900    -2.7940    -8.5570 ca         1 LIW      -0.130000
     51 C38          4.6420    -2.0850    -7.8240 ca         1 LIW      -0.116500
     52 C39          4.9120    -2.4440    -6.5050 cp         1 LIW      -0.045000
     53 H           -0.5330     0.0000    -0.9430 ha         1 LIW       0.142500
     54 H2           3.1540     0.0000     1.2720 ha         1 LIW       0.142500
     55 H3           1.8780    -0.0010     3.3870 ha         1 LIW       0.144000
     56 H5          -1.8010    -0.0010     1.1760 ha         1 LIW       0.144000
     57 HN1         -2.4250    -0.9550     2.7530 hn         1 LIW       0.331500
     58 H81          4.1890     0.0420    -0.8460 h1         1 LIW       0.045450
     59 H82          3.4300    -1.5470    -0.6720 h1         1 LIW       0.045450
     60 H91          3.1520    -1.7370    -3.0720 h1         1 LIW       0.046200
     61 H92          4.8410    -1.3420    -2.7280 h1         1 LIW       0.046200
     62 H101         2.2840     1.5960    -4.1880 h1         1 LIW       0.046200
     63 H102         1.6760    -0.0420    -3.9130 h1         1 LIW       0.046200
     64 H111         2.5190     1.9660    -1.8020 h1         1 LIW       0.045450
     65 H112         0.8770     1.3930    -2.1310 h1         1 LIW       0.045450
     66 H121         4.0390     0.7810    -5.5420 h1         1 LIW       0.048700
     67 H122         3.4800    -0.8770    -5.3210 h1         1 LIW       0.048700
     68 H13         -2.4380     1.7380     6.2510 ha         1 LIW       0.203000
     69 H16         -6.5600     2.5470     3.6200 ha         1 LIW       0.162000
     70 H17         -5.5150     0.2930     3.6420 ha         1 LIW       0.162000
     71 HN4         -6.0170     5.0810     5.7590 hn         1 LIW       0.466800
     72 H191        -4.8780     7.1590     4.5010 hc         1 LIW       0.049700
     73 H192        -6.6290     7.1510     4.7500 hc         1 LIW       0.049700
     74 H193        -5.9640     7.5150     3.1510 hc         1 LIW       0.049700
     75 H201        -3.7900     5.3560     3.2030 h1         1 LIW       0.070200
     76 H202        -4.7400     4.0540     2.5030 h1         1 LIW       0.070200
     77 H22         -2.8160     4.0960     2.0260 ha         1 LIW       0.135500
     78 H23         -0.7810     3.1860     0.9530 ha         1 LIW       0.135000
     79 H24         -0.1350     3.9350    -1.3200 ha         1 LIW       0.128000
     80 H25         -1.5290     5.5960    -2.5190 ha         1 LIW       0.135000
     81 H26         -3.5650     6.5080    -1.4520 ha         1 LIW       0.135500
     82 H271        -7.9400     4.8490     3.9120 hc         1 LIW       0.049700
     83 H272        -7.6380     5.9610     2.5700 hc         1 LIW       0.049700
     84 H273        -7.1730     4.2600     2.4310 hc         1 LIW       0.049700
     85 H29          9.2340    -1.7710    -5.0790 ha         1 LIW       0.132000
     86 H30          8.6000     0.2130    -3.7360 ha         1 LIW       0.132000
     87 H31          6.2390     0.9680    -3.6790 ha         1 LIW       0.149000
     88 H34          4.4460    -3.7860    -4.8900 ha         1 LIW       0.136000
     89 H35          2.7530    -5.0450    -6.1910 ha         1 LIW       0.132500
     90 H36          2.2690    -4.4100    -8.5370 ha         1 LIW       0.131000
     91 H37          3.4780    -2.5160    -9.5830 ha         1 LIW       0.132500
     92 H38          5.1720    -1.2570    -8.2800 ha         1 LIW       0.136000
     93 H28          7.5080    -3.0000    -6.3650 ha         1 LIW       0.138000
@<TRIPOS>BOND
     1     1     2 ar
     2     1     6 ar
     3     1    53 1
     4     2     7 1
     5     2     3 ar
     6     3     4 ar
     7     3    54 1
     8     4     5 ar
     9     4    55 1
    10     5     6 ar
    11     5     8 1
    12     6    56 1
    13     7    12 1
    14     7    16 1
    15     8     9 1
    16     8    18 2
    17     9    10 1
    18     9    57 1
    19    10    19 2
    20    10    11 1
    21    10    20 2
    22    11    21 ar
    23    11    25 ar
    24    12    13 1
    25    12    58 1
    26    12    59 1
    27    13    14 1
    28    13    60 1
    29    13    61 1
    30    14    17 1
    31    14    15 1
    32    15    16 1
    33    15    62 1
    34    15    63 1
    35    16    64 1
    36    16    65 1
    37    17    45 1
    38    17    66 1
    39    17    67 1
    40    21    22 ar
    41    21    68 1
    42    22    26 1
    43    22    23 ar
    44    23    29 1
    45    23    24 ar
    46    24    25 ar
    47    24    69 1
    48    25    70 1
    49    26    27 1
    50    26    28 1
    51    29    30 1
    52    29    71 1
    53    30    40 1
    54    30    32 1
    55    30    31 1
    56    31    72 1
    57    31    73 1
    58    31    74 1
    59    32    33 1
    60    32    75 1
    61    32    76 1
    62    33    34 1
    63    34    35 ar
    64    34    39 ar
    65    35    36 ar
    66    35    77 1
    67    36    37 ar
    68    36    78 1
    69    37    38 ar
    70    37    79 1
    71    38    39 ar
    72    38    80 1
    73    39    81 1
    74    40    82 1
    75    40    83 1
    76    40    84 1
    77    41    46 ar
    78    41    42 ar
    79    41    93 1
    80    42    43 ar
    81    42    85 1
    82    43    44 ar
    83    43    86 1
    84    44    45 ar
    85    44    87 1
    86    45    46 ar
    87    46    52 1
    88    47    48 ar
    89    47    52 ar
    90    47    88 1
    91    48    49 ar
    92    48    89 1
    93    49    50 ar
    94    49    90 1
    95    50    51 ar
    96    50    91 1
    97    51    52 ar
    98    51    92 1
@<TRIPOS>SUBSTRUCTURE
     1 LIW         1 TEMP              0 ****  ****    0 ROOT
