@<TRIPOS>MOLECULE
molecule
   82    86     1     0     0
SMALL
bcc


@<TRIPOS>ATOM
      1 N1           0.0000     0.0000     0.0000 nb         1 LIX      -0.756000
      2 N3           2.0010     0.0000    -1.2590 nu         1 LIX      -0.925900
      3 C4           2.1170     0.0000     1.1460 cp         1 LIX      -0.338600
      4 C5           2.1250    -0.0020     3.6500 c3         1 LIX      -0.144700
      5 C6           2.3970    -1.4140     4.1560 c3         1 LIX      -0.080100
      6 C7           4.2560     1.2060     1.1030 ca         1 LIX      -0.122000
      7 C8           5.6480     1.2010     1.0620 ca         1 LIX      -0.129000
      8 C10          5.6640    -1.2310     1.0500 ca         1 LIX       0.018600
      9 C15          7.8000    -2.4170     0.9510 c          1 LIX       0.699500
     10 C20          1.3530    -0.4110    -2.4610 c3         1 LIX       0.231800
     11 C21          2.3460    -0.7200    -3.5700 c3         1 LIX       0.226800
     12 C24          4.2350     0.4980    -8.3660 ca         1 LIX      -0.103000
     13 C26          6.2010     0.1720    -6.9710 ca         1 LIX       0.002000
     14 C28          6.2620     1.7150    -8.8510 ca         1 LIX      -0.105000
     15 O5           2.8390    -3.3690    -5.2150 o          1 LIX      -0.597300
     16 O4           4.8990    -3.7040    -3.8110 o          1 LIX      -0.597300
     17 C30          4.8030    -1.6600    -5.4050 ca         1 LIX      -0.281500
     18 C29          4.1620    -1.0580    -6.4740 ca         1 LIX      -0.008000
     19 C25          4.8520    -0.1320    -7.2730 ca         1 LIX      -0.059000
     20 C31          6.1180    -1.3750    -5.0950 ca         1 LIX      -0.055000
     21 C32          6.8190    -0.4580    -5.8780 ca         1 LIX      -0.130000
     22 C27          6.8920     1.0980    -7.7700 ca         1 LIX      -0.131000
     23 C23          4.9370     1.4150    -9.1480 ca         1 LIX      -0.131000
     24 N6           3.2360    -1.7900    -3.2120 n7         1 LIX      -0.882100
     25 C1           1.3480     0.0000     0.0000 ca         1 LIX       0.723200
     26 C3           1.4140     0.0000     2.3350 ca         1 LIX       0.488600
     27 N2           0.0670     0.0000     2.4090 nb         1 LIX      -0.731000
     28 C2          -0.5680    -0.0000     1.2220 ca         1 LIX       0.922900
     29 N4          -1.9800    -0.0010     1.2600 nv         1 LIX      -1.076500
     30 C12          3.5640     0.0000     1.1170 cp         1 LIX      -0.026000
     31 C11          4.2610    -1.2110     1.0960 ca         1 LIX      -0.130000
     32 N5           6.4110    -2.4410     1.0750 n          1 LIX      -0.382000
     33 C16          5.7240    -3.7090     1.2950 c3         1 LIX       0.099000
     34 C18          4.3410    -5.5640     0.2540 c3         1 LIX       0.140400
     35 O1           3.7880    -5.9990    -0.9820 os         1 LIX      -0.410600
     36 C19          3.0640    -7.2120    -0.8330 c3         1 LIX       0.125700
     37 C14          8.3770    -1.0660     0.5000 c3         1 LIX       0.072800
     38 O2           7.7060     0.0810     1.0030 os         1 LIX      -0.300900
     39 C9           6.3440    -0.0110     1.0230 ca         1 LIX       0.085100
     40 HN3          2.9540     0.3030    -1.3060 hn         1 LIX       0.445800
     41 H51          3.0660     0.5290     3.5670 hc         1 LIX       0.062700
     42 H52          1.4930     0.5110     4.3640 hc         1 LIX       0.062700
     43 H61          2.1000    -2.1320     3.4020 hc         1 LIX       0.038367
     44 H62          1.8310    -1.5880     5.0630 hc         1 LIX       0.038367
     45 H63          3.4550    -1.5260     4.3640 hc         1 LIX       0.038367
     46 H7           3.7210     2.1400     1.2270 ha         1 LIX       0.146000
     47 H8           6.1920     2.1380     1.0510 ha         1 LIX       0.153000
     48 H131         7.3590    -1.0530    -1.4010 hc         1 LIX       0.055200
     49 H132         8.8490    -0.0980    -1.3680 hc         1 LIX       0.055200
     50 H133         8.9310    -1.8640    -1.4250 hc         1 LIX       0.055200
     51 H171         5.8480    -4.4060    -0.7190 hc         1 LIX       0.062200
     52 H172         4.3730    -3.5160    -0.3460 hc         1 LIX       0.062200
     53 H201         0.7660    -1.2980    -2.2580 h1         1 LIX       0.055700
     54 H202         0.6920     0.3810    -2.7920 h1         1 LIX       0.055700
     55 H211         1.8010    -0.9990    -4.4630 h1         1 LIX       0.045700
     56 H212         2.9300     0.1690    -3.7770 h1         1 LIX       0.045700
     57 H221         9.8490    -1.0750     2.0720 hc         1 LIX       0.055200
     58 H222        10.2160     0.0300     0.7400 hc         1 LIX       0.055200
     59 H223        10.4320    -1.7130     0.5280 hc         1 LIX       0.055200
     60 H28          6.8060     2.4270    -9.4600 ha         1 LIX       0.136000
     61 H29          3.1490    -1.3440    -6.7300 ha         1 LIX       0.153000
     62 H31          6.6420    -1.9690    -4.3560 ha         1 LIX       0.156000
     63 H32          7.8510    -0.2290    -5.6400 ha         1 LIX       0.137000
     64 H27          7.9250     1.3360    -7.5440 ha         1 LIX       0.136000
     65 H23          4.4490     1.8950    -9.9880 ha         1 LIX       0.137000
     66 HN6          3.4650    -1.9390    -2.2490 hn         1 LIX       0.450800
     67 HN41        -2.4790    -0.8670     1.3090 hn         1 LIX       0.443300
     68 HN42        -2.4810     0.8660     1.2550 hn         1 LIX       0.443300
     69 H11          3.7130    -2.1450     1.1170 ha         1 LIX       0.149000
     70 H161         4.9560    -3.5650     2.0460 h1         1 LIX       0.063200
     71 H162         6.4400    -4.4360     1.6610 h1         1 LIX       0.063200
     72 H181         5.0350    -6.3100     0.6240 h1         1 LIX       0.022700
     73 H182         3.5470    -5.4170     0.9760 h1         1 LIX       0.022700
     74 H191         2.2500    -7.0630    -0.1340 h1         1 LIX       0.030367
     75 H192         2.6660    -7.5150    -1.7930 h1         1 LIX       0.030367
     76 H193         3.7260    -7.9830    -0.4570 h1         1 LIX       0.030367
     77 O3           8.5260    -3.4020     1.0970 o          1 LIX      -0.594500
     78 C13          8.3790    -1.0170    -1.0370 c3         1 LIX      -0.093600
     79 C17          5.0770    -4.2500     0.0270 c3         1 LIX      -0.109400
     80 C22          9.8250    -0.9470     0.9970 c3         1 LIX      -0.093600
     81 S1           3.9150    -2.8220    -4.4110 sy         1 LIX       1.307200
     82 H24          3.2030     0.2700    -8.6030 ha         1 LIX       0.136000
@<TRIPOS>BOND
     1     1    25 ar
     2     1    28 ar
     3     2    25 1
     4     2    10 1
     5     2    40 1
     6     3    30 1
     7     3    26 ar
     8     3    25 ar
     9     4     5 1
    10     4    26 1
    11     4    41 1
    12     4    42 1
    13     5    43 1
    14     5    44 1
    15     5    45 1
    16     6     7 ar
    17     6    30 ar
    18     6    46 1
    19     7    39 ar
    20     7    47 1
    21     8    32 1
    22     8    39 ar
    23     8    31 ar
    24    78    37 1
    25    78    48 1
    26    78    49 1
    27    78    50 1
    28     9    77 2
    29     9    37 1
    30     9    32 1
    31    79    34 1
    32    79    33 1
    33    79    51 1
    34    79    52 1
    35    10    11 1
    36    10    53 1
    37    10    54 1
    38    11    24 1
    39    11    55 1
    40    11    56 1
    41    80    37 1
    42    80    57 1
    43    80    58 1
    44    80    59 1
    45    12    19 ar
    46    12    23 ar
    47    12    82 1
    48    13    21 ar
    49    13    22 ar
    50    13    19 ar
    51    14    22 ar
    52    14    23 ar
    53    14    60 1
    54    15    81 2
    55    81    16 2
    56    81    17 1
    57    81    24 1
    58    17    20 ar
    59    17    18 ar
    60    18    19 ar
    61    18    61 1
    62    20    21 ar
    63    20    62 1
    64    21    63 1
    65    22    64 1
    66    23    65 1
    67    24    66 1
    68    26    27 ar
    69    27    28 ar
    70    28    29 1
    71    29    67 1
    72    29    68 1
    73    30    31 ar
    74    31    69 1
    75    32    33 1
    76    33    70 1
    77    33    71 1
    78    34    35 1
    79    34    72 1
    80    34    73 1
    81    35    36 1
    82    36    74 1
    83    36    75 1
    84    36    76 1
    85    37    38 1
    86    38    39 1
@<TRIPOS>SUBSTRUCTURE
     1 LIX         1 TEMP              0 ****  ****    0 ROOT
