@<TRIPOS>MOLECULE
LIY
   62    65     1     0     0
SMALL
bcc


@<TRIPOS>ATOM
      1 N1          0.0790   -0.3470   -0.1130 nb        1 LIY     -0.824000
      2 N3          2.1790   -0.6810   -1.1440 nh        1 LIY     -0.952500
      3 C4          2.1170   -0.0690    1.2270 cp        1 LIY     -0.393600
      4 C6          1.9230    0.3710    3.7140 c3        1 LIY     -0.139700
      5 C7          4.2180    1.2180    1.5120 ca        1 LIY     -0.168000
      6 C8          5.6070    1.2700    1.5300 ca        1 LIY     -0.097000
      7 C10         5.7480   -1.1210    1.0820 ca        1 LIY      0.178600
      8 C13         7.8620    0.2390    1.3730 c3        1 LIY     -0.030100
      9 C15         7.9450   -2.2390    0.9310 c3        1 LIY      0.271800
     10 C17         5.2950   -4.1520   -0.3330 c3        1 LIY     -0.095400
     11 C20         1.6290   -0.7570    4.6720 c3        1 LIY     -0.085100
     12 C21         8.4850   -2.6990    2.2690 ca        1 LIY     -0.116300
     13 C22         9.6030   -3.5420    2.2900 ca        1 LIY     -0.122000
     14 C24         9.5650   -3.5590    4.7060 ca        1 LIY     -0.127000
     15 C26         7.9130   -2.2920    3.4780 ca        1 LIY     -0.122000
     16 C1          1.4450   -0.3480   -0.0180 ca        1 LIY      0.726200
     17 C3          1.3000    0.1330    2.3610 ca        1 LIY      0.524600
     18 N2         -0.0500    0.1180    2.3010 nb        1 LIY     -0.790000
     19 C2         -0.6170   -0.0910    1.0530 ca        1 LIY      0.899900
     20 N4         -2.0110    0.0250    0.9510 nh        1 LIY     -0.924500
     21 C12         3.5740   -0.0030    1.2740 cp        1 LIY      0.016000
     22 C11         4.3320   -1.1560    1.0550 ca        1 LIY     -0.192000
     23 C9          6.3810    0.1280    1.3230 ca        1 LIY     -0.144300
     24 C14         8.5350   -0.8620    0.5860 c3        1 LIY     -0.075400
     25 C23        10.1410   -3.9680    3.5030 ca        1 LIY     -0.129500
     26 C25         8.4500   -2.7220    4.6900 ca        1 LIY     -0.129500
     27 N5          6.4970   -2.2720    0.7950 nh        1 LIY     -0.670000
     28 C16         5.8880   -3.5770    0.9540 c3        1 LIY      0.207800
     29 C18         6.3730   -4.4520   -1.3570 c3        1 LIY      0.131400
     30 O1          5.7430   -5.1870   -2.4070 os        1 LIY     -0.423600
     31 C19         6.6340   -5.4920   -3.4650 c3        1 LIY      0.116700
     32 HN31        3.1460   -0.4590   -1.1260 hn        1 LIY      0.430800
     33 HN32        1.7260   -0.6810   -2.0260 hn        1 LIY      0.430800
     34 H61         3.0330    0.4870    3.5970 hc        1 LIY      0.062200
     35 H62         1.5270    1.3350    4.1340 hc        1 LIY      0.062200
     36 H7          3.6260    2.1280    1.6810 ha        1 LIY      0.138000
     37 H8          6.1130    2.2320    1.7120 ha        1 LIY      0.130000
     38 H131        8.1930    0.1860    2.4480 hc        1 LIY      0.053200
     39 H132        8.1900    1.2360    0.9740 hc        1 LIY      0.053200
     40 H15         8.3250   -2.9710    0.1470 h1        1 LIY      0.055700
     41 H171        4.5450   -3.4480   -0.7790 hc        1 LIY      0.063200
     42 H172        4.7550   -5.1000   -0.0730 hc        1 LIY      0.063200
     43 H201        2.1500   -0.5710    5.6420 hc        1 LIY      0.039033
     44 H202        0.5330   -0.8400    4.8680 hc        1 LIY      0.039033
     45 H203        1.9880   -1.7300    4.2590 hc        1 LIY      0.039033
     46 H22        10.0620   -3.8700    1.3450 ha        1 LIY      0.136500
     47 H24         9.9880   -3.8980    5.6620 ha        1 LIY      0.133000
     48 H26         7.0350   -1.6260    3.4730 ha        1 LIY      0.136500
     49 HN41       -2.5200   -0.0650    1.8000 hn        1 LIY      0.421800
     50 HN42       -2.4290   -0.3890    0.1500 hn        1 LIY      0.421800
     51 H11         3.7980   -2.0980    0.8530 ha        1 LIY      0.145000
     52 H141        9.6330   -0.8810    0.8060 hc        1 LIY      0.054700
     53 H142        8.4050   -0.6760   -0.5120 hc        1 LIY      0.054700
     54 H23        11.0210   -4.6280    3.5100 ha        1 LIY      0.133000
     55 H25         7.9920   -2.3970    5.6360 ha        1 LIY      0.133000
     56 H161        5.0670   -3.5330    1.7280 h1        1 LIY      0.051700
     57 H162        6.6640   -4.3000    1.3400 h1        1 LIY      0.051700
     58 H181        7.1940   -5.0740   -0.9080 h1        1 LIY      0.027200
     59 H182        6.8160   -3.5070   -1.7700 h1        1 LIY      0.027200
     60 H191        7.0300   -4.5550   -3.9300 h1        1 LIY      0.031367
     61 H192        6.0110   -6.0610   -4.2000 h1        1 LIY      0.031367
     62 H193        7.4820   -6.1210   -3.0990 h1        1 LIY      0.031367
@<TRIPOS>BOND
     1    1   16 ar
     2    1   19 ar
     3    2   16 1
     4    2   32 1
     5    2   33 1
     6    3   16 ar
     7    3   17 ar
     8    3   21 1
     9    4   11 1
    10    4   17 1
    11    4   34 1
    12    4   35 1
    13    5    6 ar
    14    5   21 ar
    15    5   36 1
    16    6   23 ar
    17    6   37 1
    18    7   22 ar
    19    7   23 ar
    20    7   27 1
    21    8   23 1
    22    8   24 1
    23    8   38 1
    24    8   39 1
    25    9   12 1
    26    9   24 1
    27    9   27 1
    28    9   40 1
    29   10   28 1
    30   10   29 1
    31   10   41 1
    32   10   42 1
    33   11   43 1
    34   11   44 1
    35   11   45 1
    36   12   13 ar
    37   12   15 ar
    38   13   25 ar
    39   13   46 1
    40   14   25 ar
    41   14   26 ar
    42   14   47 1
    43   15   26 ar
    44   15   48 1
    45   17   18 ar
    46   18   19 ar
    47   19   20 1
    48   20   49 1
    49   20   50 1
    50   21   22 ar
    51   22   51 1
    52   24   52 1
    53   24   53 1
    54   25   54 1
    55   26   55 1
    56   27   28 1
    57   28   56 1
    58   28   57 1
    59   29   30 1
    60   29   58 1
    61   29   59 1
    62   30   31 1
    63   31   60 1
    64   31   61 1
    65   31   62 1
@<TRIPOS>SUBSTRUCTURE
     1 LIY         1 TEMP              0 ****  ****    0 ROOT
