@<TRIPOS>MOLECULE
LIZ
   89    90     1     0     0
SMALL
bcc


@<TRIPOS>ATOM
      1 N1           0.0000     0.0000     0.0000 n3         1 LIZ      -0.507600
      2 N3           1.0010     0.3450    -4.8010 n3         1 LIZ      -0.443600
      3 C4          -0.5260    -1.0320    -0.9040 c3         1 LIZ      -0.054700
      4 C5           4.2970     0.7620    -2.5280 c          1 LIZ       0.987600
      5 C6           3.0870     1.6040    -2.8440 c3         1 LIZ      -0.028200
      6 C7          -0.3240    -0.0450    -6.8000 c          1 LIZ       1.004100
      7 C8           1.0230     0.3760    -6.2690 c3         1 LIZ      -0.041200
      8 C10          2.2350    -0.2500    -4.2690 c3         1 LIZ      -0.041200
      9 C13          0.6690     1.6020    -2.7250 c3         1 LIZ       0.085500
     10 C15          0.4420     3.0020    -2.1500 c3         1 LIZ      -0.196400
     11 C17         -0.7340     3.6740    -4.2500 c3         1 LIZ      -0.037400
     12 C20          2.4820    -2.4130     1.8790 ca         1 LIZ      -0.074500
     13 C21          2.1900    -3.6260     2.4700 ca         1 LIZ      -0.043500
     14 C22          1.0660    -3.7520     3.2770 ca         1 LIZ      -0.299400
     15 C24          0.5380    -1.4440     2.8920 ca         1 LIZ      -0.074500
     16 C26          1.6160    -5.5150     4.7770 cs         1 LIZ       0.212400
     17 C28          2.2340    -7.2660     6.3530 c3         1 LIZ       0.027400
     18 O7          -1.1700    -0.4570    -6.0420 o          1 LIZ      -0.935800
     19 O8          -0.5830     0.0390    -8.1150 o          1 LIZ      -0.935800
     20 C9           2.3930    -1.6480    -4.8080 c          1 LIZ       1.004100
     21 O10          3.3990    -2.4240    -4.3780 o          1 LIZ      -0.935800
     22 O9           1.6120    -2.0700    -5.6290 o          1 LIZ      -0.935800
     23 C14          0.7840     1.6880    -4.2490 c3         1 LIZ       0.126500
     24 C18         -0.5070     2.2730    -4.8250 c3         1 LIZ      -0.052400
     25 C16         -0.8480     3.5870    -2.7270 c3         1 LIZ      -0.001400
     26 N2           1.9080     1.0410    -2.1720 n3         1 LIZ      -0.441600
     27 O6           5.5110     1.1450    -2.9510 o          1 LIZ      -0.907800
     28 O5           4.1720    -0.2590    -1.8930 o          1 LIZ      -0.907800
     29 C12          1.9790     1.2490    -0.7200 c3         1 LIZ       0.041800
     30 C11          1.4700     0.0000     0.0000 c3         1 LIZ       0.168500
     31 C3          -0.2390    -2.3950    -0.3310 c          1 LIZ       1.000600
     32 O4          -0.5530    -3.4970    -1.0310 o          1 LIZ      -0.918300
     33 O3           0.2730    -2.4980     0.7580 o          1 LIZ      -0.918300
     34 C2          -0.5260     1.3250    -0.3500 c3         1 LIZ      -0.054700
     35 C1          -0.0960     2.3280     0.6890 c          1 LIZ       1.000600
     36 O2           0.5360     1.9660     1.6530 o          1 LIZ      -0.918300
     37 O1          -0.4130     3.6240     0.5440 o          1 LIZ      -0.918300
     38 C25          1.9790     0.0000     1.4430 c3         1 LIZ      -0.110100
     39 C19          1.6560    -1.3230     2.0900 ca         1 LIZ       0.140700
     40 C23          0.2400    -2.6550     3.4860 ca         1 LIZ      -0.043500
     41 S1           3.1190    -4.7560     5.0910 s          1 LIZ      -0.797400
     42 N5           1.2830    -6.6470     5.4270 ns         1 LIZ      -0.107900
     43 C29          3.5210    -7.6170     5.6040 c3         1 LIZ       0.146733
     44 O11          3.2040    -8.4110     4.4590 oh         1 LIZ      -0.594133
     45 C30          2.5540    -6.2880     7.4850 c3         1 LIZ       0.146733
     46 O12          1.3640    -6.0120     8.2270 oh         1 LIZ      -0.594133
     47 C27          1.6210    -8.5400     6.9380 c3         1 LIZ       0.146733
     48 O13          2.5480    -9.1440     7.8410 oh         1 LIZ      -0.594133
     49 H4          -1.5960    -0.9040    -1.0140 h1         1 LIZ       0.051200
     50 H4A         -0.0500    -0.9400    -1.8730 h1         1 LIZ       0.051200
     51 H6           3.2520     2.6170    -2.4960 h1         1 LIZ       0.020200
     52 H6A          2.9230     1.6130    -3.9150 h1         1 LIZ       0.020200
     53 H8           1.2460     1.3810    -6.6060 h1         1 LIZ       0.043700
     54 H8A          1.7830    -0.3040    -6.6340 h1         1 LIZ       0.043700
     55 H10          3.0850     0.3510    -4.5710 h1         1 LIZ       0.043700
     56 H10A         2.1830    -0.2830    -3.1880 h1         1 LIZ       0.043700
     57 H13         -0.1680     0.9670    -2.4640 h1         1 LIZ       0.091700
     58 H15          0.3580     2.9380    -1.0720 hc         1 LIZ       0.081200
     59 H15A         1.2760     3.6400    -2.4160 hc         1 LIZ       0.081200
     60 H17          0.1030     4.3100    -4.5120 hc         1 LIZ      -0.029800
     61 H17A        -1.6490     4.0860    -4.6560 hc         1 LIZ      -0.029800
     62 H20          3.3580    -2.3150     1.2490 ha         1 LIZ       0.117500
     63 H21          2.8360    -4.4790     2.3040 ha         1 LIZ       0.065500
     64 H24         -0.1060    -0.5890     3.0560 ha         1 LIZ       0.117500
     65 H14          1.6170     2.3300    -4.5100 h1         1 LIZ      -0.012300
     66 H18         -1.3420     1.6360    -4.5590 hc         1 LIZ       0.041700
     67 H18A        -0.4240     2.3370    -5.9030 hc         1 LIZ       0.041700
     68 H16         -1.0060     4.5790    -2.3210 hc         1 LIZ      -0.003300
     69 H16A        -1.6820     2.9470    -2.4640 hc         1 LIZ      -0.003300
     70 H12          3.0060     1.4380    -0.4320 h1         1 LIZ       0.045700
     71 H12A         1.3650     2.0990    -0.4470 h1         1 LIZ       0.045700
     72 H11          1.8310    -0.8840    -0.5110 h1         1 LIZ       0.093700
     73 H2          -1.6080     1.2860    -0.3870 h1         1 LIZ       0.051200
     74 H2A         -0.1420     1.6220    -1.3190 h1         1 LIZ       0.051200
     75 H25          3.0510     0.1520     1.4480 hc         1 LIZ       0.067200
     76 H25A         1.4990     0.7990     1.9960 hc         1 LIZ       0.067200
     77 H23         -0.6380    -2.7490     4.1150 ha         1 LIZ       0.065500
     78 HN4         -0.0820    -5.4560     3.6450 hn         1 LIZ       0.122500
     79 HN5          0.3910    -7.0710     5.2680 hn         1 LIZ       0.144500
     80 H29          4.1800    -8.1750     6.2590 h1         1 LIZ       0.029867
     81 H29A         4.0150    -6.7070     5.2870 h1         1 LIZ       0.029867
     82 HO11         3.9930    -8.7960     4.1150 ho         1 LIZ       0.372333
     83 H30          2.9400    -5.3660     7.0680 h1         1 LIZ       0.029867
     84 H30A         3.2950    -6.7260     8.1420 h1         1 LIZ       0.029867
     85 HO12         1.5830    -5.5180     9.0000 ho         1 LIZ       0.372333
     86 H27          1.3940    -9.2330     6.1370 h1         1 LIZ       0.029867
     87 H27A         0.7100    -8.2920     7.4690 h1         1 LIZ       0.029867
     88 HO13         2.1870    -9.9500     8.1710 ho         1 LIZ       0.372333
     89 N4           0.7670    -4.9800     3.8770 ns         1 LIZ       0.296900
@<TRIPOS>BOND
     1     1     3 1   
     2     1    30 1   
     3     1    34 1   
     4     2     7 1   
     5     2     8 1   
     6     2    23 1   
     7     3    31 1   
     8     3    49 1   
     9     3    50 1   
    10     4     5 1   
    11     4    27 1   
    12     4    28 1   
    13     5    26 1   
    14     5    51 1   
    15     5    52 1   
    16     6     7 1   
    17     6    18 1   
    18     6    19 1   
    19     7    53 1   
    20     7    54 1   
    21     8    20 1   
    22     8    55 1   
    23     8    56 1   
    24     9    10 1   
    25     9    23 1   
    26     9    26 1   
    27     9    57 1   
    28    10    25 1   
    29    10    58 1   
    30    10    59 1   
    31    11    24 1   
    32    11    25 1   
    33    11    60 1   
    34    11    61 1   
    35    12    13 ar  
    36    12    39 ar  
    37    12    62 1   
    38    13    14 ar  
    39    13    63 1   
    40    14    40 ar  
    41    14    89 1   
    42    15    39 ar  
    43    15    40 ar  
    44    15    64 1   
    45    16    41 2   
    46    16    42 1   
    47    16    89 1   
    48    17    42 1   
    49    17    43 1   
    50    17    45 1   
    51    17    47 1   
    52    20    21 1   
    53    20    22 1   
    54    23    24 1   
    55    23    65 1   
    56    24    66 1   
    57    24    67 1   
    58    25    68 1   
    59    25    69 1   
    60    26    29 1   
    61    29    30 1   
    62    29    70 1   
    63    29    71 1   
    64    30    38 1   
    65    30    72 1   
    66    31    32 1   
    67    31    33 1   
    68    34    35 1   
    69    34    73 1   
    70    34    74 1   
    71    35    36 1   
    72    35    37 1   
    73    38    39 1   
    74    38    75 1   
    75    38    76 1   
    76    40    77 1   
    77    42    79 1   
    78    43    44 1   
    79    43    80 1   
    80    43    81 1   
    81    44    82 1   
    82    45    46 1   
    83    45    83 1   
    84    45    84 1   
    85    46    85 1   
    86    47    48 1   
    87    47    86 1   
    88    47    87 1   
    89    48    88 1   
    90    78    89 1   
@<TRIPOS>SUBSTRUCTURE
     1 LIZ         1 TEMP              0 ****  ****    0 ROOT
