@<TRIPOS>MOLECULE
molecule
   89    90     1     0     0
SMALL
bcc


@<TRIPOS>ATOM
      1 N1           0.0000     0.0000     0.0000 n3         1 LIZ      -0.711600
      2 N3           1.0010     0.3450    -4.8010 n3         1 LIZ      -0.658600
      3 C4          -0.5260    -1.0320    -0.9040 c3         1 LIZ       0.012300
      4 C5           4.2970     0.7620    -2.5280 c          1 LIZ       0.899600
      5 C6           3.0870     1.6040    -2.8440 c3         1 LIZ       0.032800
      6 C7          -0.3240    -0.0450    -6.8000 c          1 LIZ       0.909600
      7 C8           1.0230     0.3760    -6.2690 c3         1 LIZ       0.038800
      8 C10          2.2350    -0.2500    -4.2690 c3         1 LIZ       0.038800
      9 C13          0.6690     1.6020    -2.7250 c3         1 LIZ       0.155500
     10 C15          0.4420     3.0020    -2.1500 c3         1 LIZ      -0.170400
     11 C17         -0.7340     3.6740    -4.2500 c3         1 LIZ      -0.092400
     12 C20          2.4820    -2.4130     1.8790 ca         1 LIZ      -0.090000
     13 C21          2.1900    -3.6260     2.4700 ca         1 LIZ      -0.084000
     14 C22          1.0660    -3.7520     3.2770 ca         1 LIZ      -0.092400
     15 C24          0.5380    -1.4440     2.8920 ca         1 LIZ      -0.090000
     16 C26          1.6160    -5.5150     4.7770 cs         1 LIZ       0.600400
     17 C28          2.2340    -7.2660     6.3530 c3         1 LIZ       0.175400
     18 O7          -1.1700    -0.4570    -6.0420 o          1 LIZ      -0.888550
     19 O8          -0.5830     0.0390    -8.1150 o          1 LIZ      -0.888550
     20 C9           2.3930    -1.6480    -4.8080 c          1 LIZ       0.909600
     21 O10          3.3990    -2.4240    -4.3780 o          1 LIZ      -0.888550
     22 O9           1.6120    -2.0700    -5.6290 o          1 LIZ      -0.888550
     23 C14          0.7840     1.6880    -4.2490 c3         1 LIZ       0.184500
     24 C18         -0.5070     2.2730    -4.8250 c3         1 LIZ      -0.076400
     25 C16         -0.8480     3.5870    -2.7270 c3         1 LIZ      -0.057400
     26 N2           1.9080     1.0410    -2.1720 n3         1 LIZ      -0.657600
     27 O6           5.5110     1.1450    -2.9510 o          1 LIZ      -0.863300
     28 O5           4.1720    -0.2590    -1.8930 o          1 LIZ      -0.863300
     29 C12          1.9790     1.2490    -0.7200 c3         1 LIZ       0.116800
     30 C11          1.4700     0.0000     0.0000 c3         1 LIZ       0.219500
     31 C3          -0.2390    -2.3950    -0.3310 c          1 LIZ       0.903600
     32 O4          -0.5530    -3.4970    -1.0310 o          1 LIZ      -0.877550
     33 O3           0.2730    -2.4980     0.7580 o          1 LIZ      -0.877550
     34 C2          -0.5260     1.3250    -0.3500 c3         1 LIZ       0.012300
     35 C1          -0.0960     2.3280     0.6890 c          1 LIZ       0.903600
     36 O2           0.5360     1.9660     1.6530 o          1 LIZ      -0.877550
     37 O1          -0.4130     3.6240     0.5440 o          1 LIZ      -0.877550
     38 C25          1.9790     0.0000     1.4430 c3         1 LIZ      -0.095100
     39 C19          1.6560    -1.3230     2.0900 ca         1 LIZ       0.108700
     40 C23          0.2400    -2.6550     3.4860 ca         1 LIZ      -0.084000
     41 S1           3.1190    -4.7560     5.0910 s          1 LIZ      -0.783400
     42 N5           1.2830    -6.6470     5.4270 ns         1 LIZ      -0.538900
     43 C29          3.5210    -7.6170     5.6040 c3         1 LIZ       0.103733
     44 O11          3.2040    -8.4110     4.4590 oh         1 LIZ      -0.615800
     45 C30          2.5540    -6.2880     7.4850 c3         1 LIZ       0.103733
     46 O12          1.3640    -6.0120     8.2270 oh         1 LIZ      -0.615800
     47 C27          1.6210    -8.5400     6.9380 c3         1 LIZ       0.103733
     48 O13          2.5480    -9.1440     7.8410 oh         1 LIZ      -0.615800
     49 H4          -1.5960    -0.9040    -1.0140 h1         1 LIZ       0.053200
     50 H4A         -0.0500    -0.9400    -1.8730 h1         1 LIZ       0.053200
     51 H6           3.2520     2.6170    -2.4960 h1         1 LIZ       0.022200
     52 H6A          2.9230     1.6130    -3.9150 h1         1 LIZ       0.022200
     53 H8           1.2460     1.3810    -6.6060 h1         1 LIZ       0.045450
     54 H8A          1.7830    -0.3040    -6.6340 h1         1 LIZ       0.045450
     55 H10          3.0850     0.3510    -4.5710 h1         1 LIZ       0.045450
     56 H10A         2.1830    -0.2830    -3.1880 h1         1 LIZ       0.045450
     57 H13         -0.1680     0.9670    -2.4640 h1         1 LIZ       0.102700
     58 H15          0.3580     2.9380    -1.0720 hc         1 LIZ       0.076700
     59 H15A         1.2760     3.6400    -2.4160 hc         1 LIZ       0.076700
     60 H17          0.1030     4.3100    -4.5120 hc         1 LIZ      -0.010300
     61 H17A        -1.6490     4.0860    -4.6560 hc         1 LIZ      -0.010300
     62 H20          3.3580    -2.3150     1.2490 ha         1 LIZ       0.140500
     63 H21          2.8360    -4.4790     2.3040 ha         1 LIZ       0.082500
     64 H24         -0.1060    -0.5890     3.0560 ha         1 LIZ       0.140500
     65 H14          1.6170     2.3300    -4.5100 h1         1 LIZ      -0.015300
     66 H18         -1.3420     1.6360    -4.5590 hc         1 LIZ       0.059200
     67 H18A        -0.4240     2.3370    -5.9030 hc         1 LIZ       0.059200
     68 H16         -1.0060     4.5790    -2.3210 hc         1 LIZ       0.017700
     69 H16A        -1.6820     2.9470    -2.4640 hc         1 LIZ       0.017700
     70 H12          3.0060     1.4380    -0.4320 h1         1 LIZ       0.042200
     71 H12A         1.3650     2.0990    -0.4470 h1         1 LIZ       0.042200
     72 H11          1.8310    -0.8840    -0.5110 h1         1 LIZ       0.109700
     73 H2          -1.6080     1.2860    -0.3870 h1         1 LIZ       0.053200
     74 H2A         -0.1420     1.6220    -1.3190 h1         1 LIZ       0.053200
     75 H25          3.0510     0.1520     1.4480 hc         1 LIZ       0.075200
     76 H25A         1.4990     0.7990     1.9960 hc         1 LIZ       0.075200
     77 H23         -0.6380    -2.7490     4.1150 ha         1 LIZ       0.082500
     78 HN4         -0.0820    -5.4560     3.6450 hn         1 LIZ       0.304500
     79 HN5          0.3910    -7.0710     5.2680 hn         1 LIZ       0.298500
     80 H29          4.1800    -8.1750     6.2590 h1         1 LIZ       0.054367
     81 H29A         4.0150    -6.7070     5.2870 h1         1 LIZ       0.054367
     82 HO11         3.9930    -8.7960     4.1150 ho         1 LIZ       0.386667
     83 H30          2.9400    -5.3660     7.0680 h1         1 LIZ       0.054367
     84 H30A         3.2950    -6.7260     8.1420 h1         1 LIZ       0.054367
     85 HO12         1.5830    -5.5180     9.0000 ho         1 LIZ       0.386667
     86 H27          1.3940    -9.2330     6.1370 h1         1 LIZ       0.054367
     87 H27A         0.7100    -8.2920     7.4690 h1         1 LIZ       0.054367
     88 HO13         2.1870    -9.9500     8.1710 ho         1 LIZ       0.386667
     89 N4           0.7670    -4.9800     3.8770 ns         1 LIZ      -0.308100
@<TRIPOS>BOND
     1     1     3 1
     2     1    30 1
     3     1    34 1
     4     2     7 1
     5     2     8 1
     6     2    23 1
     7     3    31 1
     8     4     5 1
     9     4    27 1
    10     4    28 1
    11     5    26 1
    12     6     7 1
    13     6    18 1
    14     6    19 1
    15     8    20 1
    16     9    10 1
    17     9    23 1
    18     9    26 1
    19    10    25 1
    20    11    24 1
    21    11    25 1
    22    12    13 ar
    23    12    39 ar
    24    13    14 ar
    25    14    40 ar
    26    14    89 1
    27    15    39 ar
    28    15    40 ar
    29    16    89 1
    30    16    41 2
    31    16    42 1
    32    17    42 1
    33    17    43 1
    34    17    45 1
    35    17    47 1
    36    20    21 1
    37    20    22 1
    38    23    24 1
    39    26    29 1
    40    29    30 1
    41    30    38 1
    42    31    32 1
    43    31    33 1
    44    34    35 1
    45    35    36 1
    46    35    37 1
    47    38    39 1
    48    43    44 1
    49    45    46 1
    50    47    48 1
    51     3    49 1
    52     3    50 1
    53     5    51 1
    54     5    52 1
    55     7    53 1
    56     7    54 1
    57     8    55 1
    58     8    56 1
    59     9    57 1
    60    10    58 1
    61    10    59 1
    62    11    60 1
    63    11    61 1
    64    12    62 1
    65    13    63 1
    66    15    64 1
    67    23    65 1
    68    24    66 1
    69    24    67 1
    70    25    68 1
    71    25    69 1
    72    29    70 1
    73    29    71 1
    74    30    72 1
    75    34    73 1
    76    34    74 1
    77    38    75 1
    78    38    76 1
    79    40    77 1
    80    89    78 1
    81    42    79 1
    82    43    80 1
    83    43    81 1
    84    44    82 1
    85    45    83 1
    86    45    84 1
    87    46    85 1
    88    47    86 1
    89    47    87 1
    90    48    88 1
@<TRIPOS>SUBSTRUCTURE
     1 LIZ         1 TEMP              0 ****  ****    0 ROOT
