@<TRIPOS>MOLECULE
LJ1
   33    34     1     0     0
SMALL
bcc


@<TRIPOS>ATOM
      1 CAA        -0.0060    0.0390    0.0350 c3        1 LJ1     -0.048300
      2 CAM         1.4740    0.0170    0.0070 ca        1 LJ1     -0.127800
      3 CAK         2.2240    0.1140    1.1750 ca        1 LJ1     -0.088000
      4 CAQ         2.1520   -0.1040   -1.2250 ca        1 LJ1      0.127100
      5 OAC         1.3510   -0.1940   -2.3420 oh        1 LJ1     -0.497100
      6 CAN         3.5570   -0.1250   -1.2820 ca        1 LJ1     -0.127800
      7 CAB         4.2670   -0.2440   -2.5760 c3        1 LJ1     -0.048300
      8 CAL         4.2780   -0.0300   -0.0890 ca        1 LJ1     -0.088000
      9 CAP         3.6290    0.0850    1.1440 ca        1 LJ1     -0.085800
     10 CAE         4.3590    0.1880    2.3960 ce        1 LJ1     -0.095200
     11 CAD         5.6360   -0.1910    2.5730 cf        1 LJ1     -0.113200
     12 CAO         6.3640   -0.0850    3.8260 ca        1 LJ1     -0.052800
     13 CAI         7.7690   -0.1050    3.8000 ca        1 LJ1     -0.120500
     14 CAG         8.5000   -0.0050    4.9800 ca        1 LJ1     -0.130000
     15 CAF         7.8420    0.1110    6.2050 ca        1 LJ1     -0.128000
     16 CAH         6.4480    0.1240    6.2420 ca        1 LJ1     -0.130000
     17 CAJ         5.7130    0.0260    5.0620 ca        1 LJ1     -0.120500
     18 HAA        -0.3870    0.8890   -0.5860 hc        1 LJ1      0.045700
     19 HAAA       -0.3930    0.1520    1.0760 hc        1 LJ1      0.045700
     20 HAAB       -0.4100   -0.9090   -0.4010 hc        1 LJ1      0.045700
     21 HAK         1.7060    0.2100    2.1420 ha        1 LJ1      0.134500
     22 HOAC        1.9200   -0.2730   -3.1210 ho        1 LJ1      0.420000
     23 HAB         4.0040    0.6100   -3.2500 hc        1 LJ1      0.045700
     24 HABA        5.3750   -0.2400   -2.4290 hc        1 LJ1      0.045700
     25 HABB        3.9900   -1.1990   -3.0910 hc        1 LJ1      0.045700
     26 HAL         5.3790   -0.0380   -0.1300 ha        1 LJ1      0.134500
     27 HAE         3.7780    0.6100    3.2360 ha        1 LJ1      0.126000
     28 HAD         6.2180   -0.6140    1.7350 ha        1 LJ1      0.126000
     29 HAI         8.2940   -0.1980    2.8370 ha        1 LJ1      0.131500
     30 HAG         9.5990   -0.0180    4.9470 ha        1 LJ1      0.131000
     31 HAF         8.4200    0.1890    7.1370 ha        1 LJ1      0.131000
     32 HAH         5.9250    0.2100    7.2060 ha        1 LJ1      0.131000
     33 HAJ         4.6140    0.0290    5.1060 ha        1 LJ1      0.131500
@<TRIPOS>BOND
     1    1    2 1   
     2    1   18 1   
     3    1   19 1   
     4    1   20 1   
     5    2    3 ar  
     6    2    4 ar  
     7    3    9 ar  
     8    3   21 1   
     9    4    5 1   
    10    4    6 ar  
    11    5   22 1   
    12    6    7 1   
    13    6    8 ar  
    14    7   23 1   
    15    7   24 1   
    16    7   25 1   
    17    8    9 ar  
    18    8   26 1   
    19    9   10 1   
    20   10   11 2   
    21   10   27 1   
    22   11   12 1   
    23   11   28 1   
    24   12   13 ar  
    25   12   17 ar  
    26   13   14 ar  
    27   13   29 1   
    28   14   15 ar  
    29   14   30 1   
    30   15   16 ar  
    31   15   31 1   
    32   16   17 ar  
    33   16   32 1   
    34   17   33 1   
@<TRIPOS>SUBSTRUCTURE
     1 LJ1         1 TEMP              0 ****  ****    0 ROOT
