@<TRIPOS>MOLECULE
molecule
   33    34     1     0     0
SMALL
bcc


@<TRIPOS>ATOM
      1 CAA          0.0000     0.0000     0.0000 c3         1 LJ1      -0.042800
      2 CAM          1.5070     0.0000     0.0000 ca         1 LJ1      -0.099800
      3 CAK          2.1950     0.0000     1.1940 ca         1 LJ1      -0.113000
      4 CAQ          2.2000    -0.0060    -1.2030 ca         1 LJ1       0.101100
      5 OAC          1.5180    -0.0110    -2.3780 oh         1 LJ1      -0.520100
      6 CAN          3.5890    -0.0060    -1.2110 ca         1 LJ1      -0.099800
      7 CAB          4.3350    -0.0120    -2.5200 c3         1 LJ1      -0.042800
      8 CAL          4.2860     0.0000    -0.0210 ca         1 LJ1      -0.113000
      9 CAP          3.5920    -0.0010     1.1930 ca         1 LJ1      -0.058800
     10 CAE          4.3330     0.0000     2.4670 ce         1 LJ1      -0.109200
     11 CAD          5.6760    -0.0010     2.4620 cf         1 LJ1      -0.109200
     12 CAO          6.4160     0.0000     3.7370 ca         1 LJ1      -0.057800
     13 CAI          7.8130    -0.0010     3.7370 ca         1 LJ1      -0.118500
     14 CAG          8.5000     0.0000     4.9340 ca         1 LJ1      -0.127500
     15 CAF          7.8080     0.0000     6.1320 ca         1 LJ1      -0.126000
     16 CAH          6.4240     0.0000     6.1400 ca         1 LJ1      -0.127500
     17 CAJ          5.7250     0.0060     4.9510 ca         1 LJ1      -0.118500
     18 HAA         -0.3610     0.7980    -0.6380 hc         1 LJ1       0.045367
     19 HAAA        -0.3610    -0.9510    -0.3720 hc         1 LJ1       0.045367
     20 HAAB        -0.3610     0.1530     1.0100 hc         1 LJ1       0.045367
     21 HAK          1.6530    -0.0010     2.1320 ha         1 LJ1       0.135500
     22 HOAC         1.3590    -0.9010    -2.6460 ho         1 LJ1       0.417000
     23 HAB          3.9570     0.7810    -3.1540 hc         1 LJ1       0.045367
     24 HABA         4.1940    -0.9660    -3.0120 hc         1 LJ1       0.045367
     25 HABB         5.3910     0.1460    -2.3350 hc         1 LJ1       0.045367
     26 HAL          5.3700     0.0000    -0.0270 ha         1 LJ1       0.135500
     27 HAE          3.7940     0.0010     3.4060 ha         1 LJ1       0.134000
     28 HAD          6.2150    -0.0020     1.5230 ha         1 LJ1       0.134000
     29 HAI          8.3560    -0.0010     2.8000 ha         1 LJ1       0.131500
     30 HAG          9.5830     0.0000     4.9350 ha         1 LJ1       0.130000
     31 HAF          8.3530    -0.0020     7.0680 ha         1 LJ1       0.129000
     32 HAH          5.8890     0.0020     7.0820 ha         1 LJ1       0.130000
     33 HAJ          4.6420     0.0060     4.9590 ha         1 LJ1       0.131500
@<TRIPOS>BOND
     1     1     2 1
     2     1    18 1
     3     1    19 1
     4     1    20 1
     5     2     3 ar
     6     2     4 ar
     7     3     9 ar
     8     3    21 1
     9     4     5 1
    10     4     6 ar
    11     5    22 1
    12     6     7 1
    13     6     8 ar
    14     7    23 1
    15     7    24 1
    16     7    25 1
    17     8     9 ar
    18     8    26 1
    19     9    10 1
    20    10    11 2
    21    10    27 1
    22    11    12 1
    23    11    28 1
    24    12    13 ar
    25    12    17 ar
    26    13    14 ar
    27    13    29 1
    28    14    15 ar
    29    14    30 1
    30    15    16 ar
    31    15    31 1
    32    16    17 ar
    33    16    32 1
    34    17    33 1
@<TRIPOS>SUBSTRUCTURE
     1 LJ1         1 TEMP              0 ****  ****    0 ROOT
