@<TRIPOS>MOLECULE
LJ2
   27    28     1     0     0
SMALL
bcc


@<TRIPOS>ATOM
      1 CAK        -0.2450    1.1210   -0.0040 ca        1 LJ2     -0.046500
      2 CAM         0.7240    0.1500   -0.2540 ca        1 LJ2     -0.091900
      3 BRAB        1.7560    0.3160   -1.8100 br        1 LJ2     -0.067100
      4 CAO         0.8930   -0.9090    0.6650 ca        1 LJ2      0.187100
      5 OAA         1.8610   -1.8350    0.3790 oh        1 LJ2     -0.474100
      6 CAN         0.0810   -0.9740    1.8160 ca        1 LJ2     -0.091900
      7 BRAC        0.2660   -2.3530    3.0750 br        1 LJ2     -0.067100
      8 CAL        -0.8870    0.0040    2.0380 ca        1 LJ2     -0.046500
      9 CAQ        -1.0620    1.0570    1.1340 ca        1 LJ2     -0.093800
     10 CAE        -2.0300    2.1160    1.3680 ce        1 LJ2     -0.108200
     11 CAD        -3.2520    2.0200    1.9090 cf        1 LJ2     -0.096200
     12 CAP        -3.9540    0.8240    2.3480 ca        1 LJ2     -0.070800
     13 CAI        -4.6880    0.8620    3.5440 ca        1 LJ2     -0.117500
     14 CAG        -5.4040   -0.2560    3.9660 ca        1 LJ2     -0.130500
     15 CAF        -5.4070   -1.4190    3.1960 ca        1 LJ2     -0.124000
     16 CAH        -4.6890   -1.4610    2.0010 ca        1 LJ2     -0.130500
     17 CAJ        -3.9640   -0.3480    1.5790 ca        1 LJ2     -0.117500
     18 HAK        -0.3800    1.9560   -0.7120 ha        1 LJ2      0.158500
     19 HOAA        1.8740   -2.4980    1.0910 ho        1 LJ2      0.437000
     20 HAL        -1.5330   -0.0450    2.9320 ha        1 LJ2      0.158500
     21 HAE        -1.6740    3.1170    1.0530 ha        1 LJ2      0.130000
     22 HAD        -3.8360    2.9500    2.0510 ha        1 LJ2      0.130000
     23 HAI        -4.6940    1.7800    4.1500 ha        1 LJ2      0.136500
     24 HAG        -5.9700   -0.2190    4.9090 ha        1 LJ2      0.134000
     25 HAF        -5.9770   -2.2990    3.5280 ha        1 LJ2      0.133000
     26 HAH        -4.6920   -2.3750    1.3890 ha        1 LJ2      0.134000
     27 HAJ        -3.3930   -0.3840    0.6380 ha        1 LJ2      0.136500
@<TRIPOS>BOND
     1    1    2 ar  
     2    1    9 ar  
     3    1   18 1   
     4    2    3 1   
     5    2    4 ar  
     6    4    5 1   
     7    4    6 ar  
     8    5   19 1   
     9    6    7 1   
    10    6    8 ar  
    11    8    9 ar  
    12    8   20 1   
    13    9   10 1   
    14   10   11 2   
    15   10   21 1   
    16   11   12 1   
    17   11   22 1   
    18   12   13 ar  
    19   12   17 ar  
    20   13   14 ar  
    21   13   23 1   
    22   14   15 ar  
    23   14   24 1   
    24   15   16 ar  
    25   15   25 1   
    26   16   17 ar  
    27   16   26 1   
    28   17   27 1   
@<TRIPOS>SUBSTRUCTURE
     1 LJ2         1 TEMP              0 ****  ****    0 ROOT
