@<TRIPOS>MOLECULE
molecule
   27    28     1     0     0
SMALL
bcc


@<TRIPOS>ATOM
      1 CAK          0.0000     0.0000     0.0000 ca         1 LJ2      -0.077000
      2 CAM          1.3790     0.0000     0.0000 ca         1 LJ2      -0.042400
      3 BrAB         2.3240     0.0000    -1.6390 br         1 LJ2      -0.069600
      4 CAO          2.0760     0.0000     1.2020 ca         1 LJ2       0.149100
      5 OAA          3.4340    -0.0000     1.1980 oh         1 LJ2      -0.500100
      6 CAN          1.3870     0.0000     2.4090 ca         1 LJ2      -0.042400
      7 BrAC         2.3430     0.0020     4.0410 br         1 LJ2      -0.069600
      8 CAL          0.0090     0.0000     2.4190 ca         1 LJ2      -0.077000
      9 CAQ         -0.6970     0.0000     1.2110 ca         1 LJ2      -0.056800
     10 CAE         -2.1700     0.0010     1.2170 ce         1 LJ2      -0.121200
     11 CAD         -2.8380     0.0010     2.3820 cf         1 LJ2      -0.092200
     12 CAP         -4.3110     0.0010     2.3870 ca         1 LJ2      -0.064800
     13 CAI         -5.0090     0.0020     3.5980 ca         1 LJ2      -0.114000
     14 CAG         -6.3880     0.0020     3.5950 ca         1 LJ2      -0.127500
     15 CAF         -7.0810     0.0020     2.3970 ca         1 LJ2      -0.121000
     16 CAH         -6.3970     0.0020     1.1940 ca         1 LJ2      -0.127500
     17 CAJ         -5.0170     0.0070     1.1810 ca         1 LJ2      -0.114000
     18 HAK         -0.5420     0.0000    -0.9380 ha         1 LJ2       0.152500
     19 HOAA         3.7490    -0.8890     1.1970 ho         1 LJ2       0.432000
     20 HAL         -0.5270    -0.0000     3.3600 ha         1 LJ2       0.152500
     21 HAE         -2.7150     0.0010     0.2800 ha         1 LJ2       0.140000
     22 HAD         -2.2930     0.0000     3.3180 ha         1 LJ2       0.134000
     23 HAI         -4.4680     0.0020     4.5360 ha         1 LJ2       0.132000
     24 HAG         -6.9300     0.0020     4.5330 ha         1 LJ2       0.132000
     25 HAF         -8.1640    -0.0000     2.4010 ha         1 LJ2       0.131000
     26 HAH         -6.9460     0.0040     0.2610 ha         1 LJ2       0.132000
     27 HAJ         -4.4830     0.0070     0.2390 ha         1 LJ2       0.132000
@<TRIPOS>BOND
     1     1     2 ar
     2     1     9 ar
     3     2     3 1
     4     2     4 ar
     5     4     5 1
     6     4     6 ar
     7     6     7 1
     8     6     8 ar
     9     8     9 ar
    10     9    10 1
    11    10    11 2
    12    11    12 1
    13    12    13 ar
    14    12    17 ar
    15    13    14 ar
    16    14    15 ar
    17    15    16 ar
    18    16    17 ar
    19     1    18 1
    20     5    19 1
    21     8    20 1
    22    10    21 1
    23    11    22 1
    24    13    23 1
    25    14    24 1
    26    15    25 1
    27    16    26 1
    28    17    27 1
@<TRIPOS>SUBSTRUCTURE
     1 LJ2         1 TEMP              0 ****  ****    0 ROOT
