@<TRIPOS>MOLECULE
molecule
   23    24     1     0     0
SMALL
bcc


@<TRIPOS>ATOM
      1 CAI          0.0000     0.0000     0.0000 ca         1 LJ3      -0.077000
      2 CAL          1.3800     0.0000     0.0000 ca         1 LJ3      -0.042900
      3 BrAB         2.3240     0.0010    -1.6390 br         1 LJ3      -0.069100
      4 CAK          2.0760     0.0000     1.2010 ca         1 LJ3       0.149100
      5 OAA          3.4350     0.0010     1.1990 oh         1 LJ3      -0.500100
      6 CAM          1.3850     0.0010     2.4060 ca         1 LJ3      -0.042900
      7 BrAC         2.3370     0.0020     4.0410 br         1 LJ3      -0.069100
      8 CAJ          0.0050    -0.0000     2.4120 ca         1 LJ3      -0.077000
      9 CAO         -0.6950     0.0000     1.2080 cp         1 LJ3      -0.035000
     10 CAN         -2.1790    -0.0000     1.2110 cp         1 LJ3      -0.042000
     11 CAG         -2.8760    -0.0000     2.4170 ca         1 LJ3      -0.116000
     12 CAE         -4.2560    -0.0000     2.4140 ca         1 LJ3      -0.124000
     13 CAD         -4.9470    -0.0000     1.2170 ca         1 LJ3      -0.121000
     14 CAF         -4.2610    -0.0000     0.0160 ca         1 LJ3      -0.124000
     15 CAH         -2.8810     0.0060     0.0070 ca         1 LJ3      -0.116000
     16 HAI         -0.5420    -0.0000    -0.9380 ha         1 LJ3       0.154000
     17 HOAA         3.7500    -0.8880     1.1980 ho         1 LJ3       0.432000
     18 HAJ         -0.5330     0.0000     3.3520 ha         1 LJ3       0.154000
     19 HAG         -2.3350    -0.0000     3.3560 ha         1 LJ3       0.133000
     20 HAE         -4.7980    -0.0000     3.3520 ha         1 LJ3       0.134000
     21 HAD         -6.0310    -0.0030     1.2190 ha         1 LJ3       0.132000
     22 HAF         -4.8080     0.0020    -0.9190 ha         1 LJ3       0.134000
     23 HAH         -2.3440     0.0060    -0.9340 ha         1 LJ3       0.133000
@<TRIPOS>BOND
     1     1     2 ar
     2     1     9 ar
     3     2     3 1
     4     2     4 ar
     5     4     5 1
     6     4     6 ar
     7     6     7 1
     8     6     8 ar
     9     8     9 ar
    10     9    10 1
    11    10    11 ar
    12    10    15 ar
    13    11    12 ar
    14    12    13 ar
    15    13    14 ar
    16    14    15 ar
    17     1    16 1
    18     5    17 1
    19     8    18 1
    20    11    19 1
    21    12    20 1
    22    13    21 1
    23    14    22 1
    24    15    23 1
@<TRIPOS>SUBSTRUCTURE
     1 LJ3         1 TEMP              0 ****  ****    0 ROOT
