@<TRIPOS>MOLECULE
LJ3
   23    24     1     0     0
SMALL
bcc


@<TRIPOS>ATOM
      1 CAI         0.0090   -0.4650    0.1170 ca        1 LJ3     -0.048500
      2 CAL         1.4040   -0.4920    0.1240 ca        1 LJ3     -0.090400
      3 BRAB        2.2940   -1.0830   -1.4190 br        1 LJ3     -0.066600
      4 CAK         2.1070   -0.0810    1.2750 ca        1 LJ3      0.187100
      5 OAA         3.4740   -0.0810    1.3540 oh        1 LJ3     -0.474100
      6 CAM         1.3960    0.3550    2.4140 ca        1 LJ3     -0.090400
      7 BRAC        2.2480    0.9210    3.9840 br        1 LJ3     -0.066600
      8 CAJ         0.0020    0.3720    2.3820 ca        1 LJ3     -0.048500
      9 CAO        -0.7030   -0.0350    1.2410 cp        1 LJ3     -0.070000
     10 CAN        -2.1640   -0.0100    1.2270 cp        1 LJ3     -0.040000
     11 CAG        -2.8910   -0.4340    2.3490 ca        1 LJ3     -0.118000
     12 CAE        -4.2840   -0.4100    2.3330 ca        1 LJ3     -0.128000
     13 CAD        -4.9650    0.0370    1.2010 ca        1 LJ3     -0.124000
     14 CAF        -4.2480    0.4610    0.0820 ca        1 LJ3     -0.128000
     15 CAH        -2.8550    0.4380    0.0920 ca        1 LJ3     -0.118000
     16 HAI        -0.5450   -0.7910   -0.7800 ha        1 LJ3      0.156500
     17 HOAA        3.8340   -0.4010    0.5090 ho        1 LJ3      0.437000
     18 HAJ        -0.5640    0.7170    3.2650 ha        1 LJ3      0.156500
     19 HAG        -2.3580   -0.7940    3.2420 ha        1 LJ3      0.135500
     20 HAE        -4.8460   -0.7470    3.2160 ha        1 LJ3      0.134500
     21 HAD        -6.0640    0.0550    1.1900 ha        1 LJ3      0.134000
     22 HAF        -4.7820    0.8160   -0.8120 ha        1 LJ3      0.134500
     23 HAH        -2.2930    0.7800   -0.7900 ha        1 LJ3      0.135500
@<TRIPOS>BOND
     1    1    2 ar  
     2    1    9 ar  
     3    1   16 1   
     4    2    3 1   
     5    2    4 ar  
     6    4    5 1   
     7    4    6 ar  
     8    5   17 1   
     9    6    7 1   
    10    6    8 ar  
    11    8    9 ar  
    12    8   18 1   
    13    9   10 1   
    14   10   11 ar  
    15   10   15 ar  
    16   11   12 ar  
    17   11   19 1   
    18   12   13 ar  
    19   12   20 1   
    20   13   14 ar  
    21   13   21 1   
    22   14   15 ar  
    23   14   22 1   
    24   15   23 1   
@<TRIPOS>SUBSTRUCTURE
     1 LJ3         1 TEMP              0 ****  ****    0 ROOT
