@<TRIPOS>MOLECULE
LJ4
   24    25     1     0     0
SMALL
bcc


@<TRIPOS>ATOM
      1 CAI         0.3710    0.2460   -0.1320 ca        1 LJ4     -0.080500
      2 CAL         1.6700   -0.2060    0.1000 ca        1 LJ4     -0.073400
      3 BrAB        2.8030   -0.4450   -1.3750 br        1 LJ4     -0.059100
      4 CAP         2.1010   -0.4650    1.4180 ca        1 LJ4      0.172100
      5 OAA         3.3630   -0.9080    1.7160 oh        1 LJ4     -0.474100
      6 CAM         1.2170   -0.2750    2.5050 ca        1 LJ4     -0.073400
      7 BrAC        1.7150   -0.5970    4.2820 br        1 LJ4     -0.059100
      8 CAJ        -0.0830    0.1660    2.2630 ca        1 LJ4     -0.080500
      9 CAO        -0.4940    0.4280    0.9490 ca        1 LJ4      0.065100
     10 OAK        -1.7630    0.9820    0.8060 os        1 LJ4     -0.243200
     11 CAN        -2.5380    0.4970   -0.2460 ca        1 LJ4      0.099100
     12 CAG        -2.4570   -0.8170   -0.7200 ca        1 LJ4     -0.159000
     13 CAE        -3.3380   -1.2280   -1.7190 ca        1 LJ4     -0.105000
     14 CAD        -4.2850   -0.3430   -2.2320 ca        1 LJ4     -0.149000
     15 CAF        -4.3570    0.9650   -1.7490 ca        1 LJ4     -0.105000
     16 CAH        -3.4840    1.4010   -0.7560 ca        1 LJ4     -0.159000
     17 HAI         0.0160    0.4570   -1.1540 ha        1 LJ4      0.169500
     18 HOAA        3.8690   -0.9830    0.8880 ho        1 LJ4      0.436000
     19 HAJ        -0.7940    0.3270    3.0900 ha        1 LJ4      0.169500
     20 HAG        -1.7090   -1.5100   -0.3090 ha        1 LJ4      0.149500
     21 HAE        -3.2840   -2.2590   -2.0990 ha        1 LJ4      0.137000
     22 HAD        -4.9780   -0.6750   -3.0190 ha        1 LJ4      0.136000
     23 HAF        -5.1070    1.6610   -2.1550 ha        1 LJ4      0.137000
     24 HAH        -3.5290    2.4250   -0.3620 ha        1 LJ4      0.149500
@<TRIPOS>BOND
     1    1    2 ar  
     2    1    9 ar  
     3    1   17 1   
     4    2    3 1   
     5    2    4 ar  
     6    4    5 1   
     7    4    6 ar  
     8    5   18 1   
     9    6    7 1   
    10    6    8 ar  
    11    8    9 ar  
    12    8   19 1   
    13    9   10 1   
    14   10   11 1   
    15   11   12 ar  
    16   11   16 ar  
    17   12   13 ar  
    18   12   20 1   
    19   13   14 ar  
    20   13   21 1   
    21   14   15 ar  
    22   14   22 1   
    23   15   16 ar  
    24   15   23 1   
    25   16   24 1   
@<TRIPOS>SUBSTRUCTURE
     1 LJ4         1 TEMP              0 ****  ****    0 ROOT
