@<TRIPOS>MOLECULE
molecule
   24    25     1     0     0
SMALL
bcc


@<TRIPOS>ATOM
      1 CAI          0.0000     0.0000     0.0000 ca         1 LJ4      -0.138500
      2 CAL          1.3820     0.0000     0.0000 ca         1 LJ4      -0.011900
      3 BrAB         2.3290    -0.0010    -1.6360 br         1 LJ4      -0.063600
      4 CAP          2.0760     0.0000     1.2030 ca         1 LJ4       0.115100
      5 OAA          3.4360    -0.0000     1.2040 oh         1 LJ4      -0.498100
      6 CAM          1.3800     0.0010     2.4040 ca         1 LJ4      -0.011900
      7 BrAC         2.3250     0.0020     4.0420 br         1 LJ4      -0.063600
      8 CAJ         -0.0020     0.0020     2.4030 ca         1 LJ4      -0.138500
      9 CAO         -0.6940     0.0010     1.2010 ca         1 LJ4       0.135100
     10 OAK         -2.0540     0.0020     1.2000 os         1 LJ4      -0.242200
     11 CAN         -2.6910    -0.0110    -0.0010 ca         1 LJ4       0.086100
     12 CAG         -3.0170    -1.2180    -0.6020 ca         1 LJ4      -0.133500
     13 CAE         -3.6650    -1.2270    -1.8220 ca         1 LJ4      -0.119000
     14 CAD         -3.9890    -0.0350    -2.4430 ca         1 LJ4      -0.123000
     15 CAF         -3.6650     1.1690    -1.8460 ca         1 LJ4      -0.119000
     16 CAH         -3.0210     1.1840    -0.6240 ca         1 LJ4      -0.133500
     17 HAI         -0.5420    -0.0010    -0.9380 ha         1 LJ4       0.164000
     18 HOAA         3.7500    -0.8890     1.2040 ho         1 LJ4       0.428000
     19 HAJ         -0.5440     0.0030     3.3400 ha         1 LJ4       0.164000
     20 HAG         -2.7630    -2.1520    -0.1150 ha         1 LJ4       0.146000
     21 HAE         -3.9200    -2.1700    -2.2920 ha         1 LJ4       0.138500
     22 HAD         -4.4960    -0.0450    -3.4010 ha         1 LJ4       0.136000
     23 HAF         -3.9220     2.1010    -2.3340 ha         1 LJ4       0.138500
     24 HAH         -2.7680     2.1280    -0.1570 ha         1 LJ4       0.146000
@<TRIPOS>BOND
     1     1     2 ar
     2     1     9 ar
     3     2     3 1
     4     2     4 ar
     5     4     5 1
     6     4     6 ar
     7     6     7 1
     8     6     8 ar
     9     8     9 ar
    10     9    10 1
    11    10    11 1
    12    11    12 ar
    13    11    16 ar
    14    12    13 ar
    15    13    14 ar
    16    14    15 ar
    17    15    16 ar
    18     1    17 1
    19     5    18 1
    20     8    19 1
    21    12    20 1
    22    13    21 1
    23    14    22 1
    24    15    23 1
    25    16    24 1
@<TRIPOS>SUBSTRUCTURE
     1 LJ4         1 TEMP              0 ****  ****    0 ROOT
