@<TRIPOS>MOLECULE
molecule
   27    28     1     0     0
SMALL
bcc


@<TRIPOS>ATOM
      1 CAJ          0.0000     0.0000     0.0000 ca         1 LJ5      -0.102500
      2 CAO          1.3820     0.0000     0.0000 ca         1 LJ5      -0.027400
      3 BrAC         2.3280     0.0020    -1.6370 br         1 LJ5      -0.065100
      4 CAR          2.0750     0.0000     1.2020 ca         1 LJ5       0.132100
      5 OAB          3.4360     0.0010     1.2020 oh         1 LJ5      -0.499100
      6 CAP          1.3820    -0.0010     2.4040 ca         1 LJ5      -0.027400
      7 BrAD         2.3280    -0.0020     4.0410 br         1 LJ5      -0.065100
      8 CAK         -0.0000    -0.0020     2.4050 ca         1 LJ5      -0.102500
      9 CAN         -0.6940    -0.0010     1.2020 ca         1 LJ5       0.057600
     10 NAL         -2.0940    -0.0010     1.2030 ns         1 LJ5      -0.476100
     11 CAM         -2.7690    -0.6400     0.2260 c          1 LJ5       0.676700
     12 OAA         -2.1650    -1.2980    -0.5990 o          1 LJ5      -0.587100
     13 CAQ         -4.2420    -0.5430     0.1590 ca         1 LJ5      -0.153600
     14 CAH         -4.9440    -1.2050    -0.8500 ca         1 LJ5      -0.083000
     15 CAF         -6.3180    -1.1100    -0.9070 ca         1 LJ5      -0.136500
     16 CAE         -7.0030    -0.3620     0.0350 ca         1 LJ5      -0.100000
     17 CAG         -6.3140     0.2960     1.0380 ca         1 LJ5      -0.136500
     18 CAI         -4.9390     0.2050     1.1100 ca         1 LJ5      -0.083000
     19 HAJ         -0.5410     0.0010    -0.9380 ha         1 LJ5       0.164500
     20 HOAB         3.7500     0.8900     1.2020 ho         1 LJ5       0.428000
     21 HAK         -0.5410    -0.0030     3.3430 ha         1 LJ5       0.164500
     22 HNAL        -2.5940     0.4570     1.9390 hn         1 LJ5       0.330500
     23 HAH         -4.4090    -1.7900    -1.5880 ha         1 LJ5       0.141000
     24 HAF         -6.8640    -1.6220    -1.6900 ha         1 LJ5       0.137500
     25 HAE         -8.0820    -0.2890    -0.0160 ha         1 LJ5       0.135000
     26 HAG         -6.8560     0.8790     1.7740 ha         1 LJ5       0.137500
     27 HAI         -4.4000     0.7210     1.8960 ha         1 LJ5       0.141000
@<TRIPOS>BOND
     1     1     2 ar
     2     1     9 ar
     3     2     3 1
     4     2     4 ar
     5     4     5 1
     6     4     6 ar
     7     6     7 1
     8     6     8 ar
     9     8     9 ar
    10     9    10 1
    11    10    11 1
    12    11    12 2
    13    11    13 1
    14    13    14 ar
    15    13    18 ar
    16    14    15 ar
    17    15    16 ar
    18    16    17 ar
    19    17    18 ar
    20     1    19 1
    21     5    20 1
    22     8    21 1
    23    10    22 1
    24    14    23 1
    25    15    24 1
    26    16    25 1
    27    17    26 1
    28    18    27 1
@<TRIPOS>SUBSTRUCTURE
     1 LJ5         1 TEMP              0 ****  ****    0 ROOT
