@<TRIPOS>MOLECULE
LJ9
   49    53     1     0     0
SMALL
bcc


@<TRIPOS>ATOM
      1 C01          0.0000     0.0000     0.0000 c3         1 LJ9       0.006900
      2 C02          1.5300     0.0000     0.0000 c3         1 LJ9      -0.020700
      3 C03          2.0320     0.0000     1.4210 cc         1 LJ9       0.408900
      4 N04          2.2840     1.0520     2.1460 nd         1 LJ9      -0.635100
      5 N05          2.7340     0.6680     3.4130 na         1 LJ9       0.588800
      6 C06          2.7640    -0.7030     3.4800 ca         1 LJ9      -0.149200
      7 C07          3.1200    -1.6100     4.4730 ca         1 LJ9      -0.184000
      8 C08          3.0390    -2.9680     4.2220 ca         1 LJ9       0.066600
      9 C09          2.6020    -3.4340     2.9810 ca         1 LJ9      -0.187000
     10 C10          2.2500    -2.5580     1.9960 ca         1 LJ9       0.012000
     11 C11          2.3200    -1.1810     2.2310 ca         1 LJ9      -0.279900
     12 N12          3.3960    -3.8790     5.2180 nh         1 LJ9      -0.361000
     13 C13          3.9670    -5.1160     4.6270 c3         1 LJ9       0.133300
     14 C14          4.7780    -5.7590     5.7720 c3         1 LJ9      -0.051700
     15 C15          3.8410    -6.6710     6.5920 c3         1 LJ9       0.142800
     16 N16          4.1660    -6.3680     8.0090 n7         1 LJ9      -0.582200
     17 C17          4.3640    -4.8950     8.0300 c3         1 LJ9       0.142800
     18 C18          5.1240    -4.5830     6.7240 c3         1 LJ9      -0.051700
     19 C19          4.4900    -3.3400     6.0650 c3         1 LJ9       0.133300
     20 C20          3.0940     1.5410     4.4470 ca         1 LJ9      -0.120200
     21 C21          2.8380     1.1980     5.7670 ca         1 LJ9      -0.113500
     22 C22          3.1950     2.0620     6.7850 ca         1 LJ9      -0.083500
     23 C23          3.8080     3.2650     6.4890 ca         1 LJ9      -0.107000
     24 C24          4.0650     3.6090     5.1750 ca         1 LJ9      -0.083500
     25 C25          3.7160     2.7480     4.1530 ca         1 LJ9      -0.113500
     26 H01         -0.3610    -1.0010    -0.2050 hc         1 LJ9       0.005367
     27 H01A        -0.3610     0.6780    -0.7640 hc         1 LJ9       0.005367
     28 H01B        -0.3610     0.3230     0.9690 hc         1 LJ9       0.005367
     29 H02          1.8920     0.8850    -0.5110 hc         1 LJ9       0.021700
     30 H02A         1.8920    -0.8840    -0.5110 hc         1 LJ9       0.021700
     31 H07          3.4600    -1.2540     5.4380 ha         1 LJ9       0.131000
     32 H09          2.5430    -4.5000     2.7980 ha         1 LJ9       0.119000
     33 H10          1.9120    -2.9290     1.0360 ha         1 LJ9       0.102000
     34 H13          4.6190    -4.8700     3.7970 h1         1 LJ9       0.026200
     35 H13A         3.1740    -5.7810     4.3080 h1         1 LJ9       0.026200
     36 H14          5.6600    -6.2790     5.4170 hc         1 LJ9       0.045700
     37 H15          4.0440    -7.7120     6.3750 h1         1 LJ9       0.016700
     38 H15A         2.8050    -6.4310     6.3840 h1         1 LJ9       0.016700
     39 HN16         3.3860    -6.6080     8.5890 hn         1 LJ9       0.253800
     40 H17          3.4070    -4.3880     8.0390 h1         1 LJ9       0.016700
     41 H17A         4.9580    -4.6080     8.8890 h1         1 LJ9       0.016700
     42 H18          6.1900    -4.4750     6.8780 hc         1 LJ9       0.045700
     43 H19          5.2210    -2.8260     5.4520 h1         1 LJ9       0.026200
     44 H19A         4.0880    -2.6770     6.8210 h1         1 LJ9       0.026200
     45 H21          2.3570     0.2560     6.0000 ha         1 LJ9       0.123500
     46 H22          2.9950     1.7950     7.8160 ha         1 LJ9       0.105000
     47 H23          4.0850     3.9410     7.2890 ha         1 LJ9       0.104000
     48 H24          4.5470     4.5510     4.9470 ha         1 LJ9       0.105000
     49 H25          3.9180     3.0180     3.1240 ha         1 LJ9       0.123500
@<TRIPOS>BOND
     1     1     2 1   
     2     1    26 1   
     3     1    27 1   
     4     1    28 1   
     5     2     3 1   
     6     2    29 1   
     7     2    30 1   
     8     3     4 2   
     9     3    11 1   
    10     4     5 1   
    11     5     6 1   
    12     5    20 1   
    13     6     7 ar  
    14     6    11 ar  
    15     7     8 ar  
    16     7    31 1   
    17     8     9 ar  
    18     8    12 1   
    19     9    10 ar  
    20     9    32 1   
    21    10    11 ar  
    22    10    33 1   
    23    12    13 1   
    24    12    19 1   
    25    13    14 1   
    26    13    34 1   
    27    13    35 1   
    28    14    15 1   
    29    14    18 1   
    30    14    36 1   
    31    15    16 1   
    32    15    37 1   
    33    15    38 1   
    34    16    17 1   
    35    16    39 1   
    36    17    18 1   
    37    17    40 1   
    38    17    41 1   
    39    18    19 1   
    40    18    42 1   
    41    19    43 1   
    42    19    44 1   
    43    20    21 ar  
    44    20    25 ar  
    45    21    22 ar  
    46    21    45 1   
    47    22    23 ar  
    48    22    46 1   
    49    23    24 ar  
    50    23    47 1   
    51    24    25 ar  
    52    24    48 1   
    53    25    49 1   
@<TRIPOS>SUBSTRUCTURE
     1 LJ9         1 TEMP              0 ****  ****    0 ROOT
