@<TRIPOS>MOLECULE
LJE
   50    53     1     0     0
SMALL
bcc


@<TRIPOS>ATOM
      1 C1           0.0000     0.0000     0.0000 ca         1 LJE      -0.113000
      2 F1           4.0460     0.0020    -0.1360 f          1 LJE      -0.205967
      3 N1          -6.2050     1.8420    10.0880 nb         1 LJE      -0.606000
      4 O1          -4.8320     0.4920     8.4550 os         1 LJE      -0.298400
      5 C2           1.3840     0.0000     0.0000 ca         1 LJE      -0.024000
      6 F2           4.0590     1.1420     1.8430 f          1 LJE      -0.205967
      7 N2          -7.4580     3.0840    11.5690 nb         1 LJE      -0.637000
      8 O2          -0.1220    -0.0050     4.7350 o          1 LJE      -0.627100
      9 C3           2.0810     0.0000     1.1950 ca         1 LJE      -0.221300
     10 F3           4.0590    -1.1420     1.8420 f          1 LJE      -0.205967
     11 N3          -4.0210    -1.5890     9.0660 nb         1 LJE      -0.653000
     12 C4           1.4000    -0.0010     2.3940 ca         1 LJE       0.028000
     13 N4          -2.0790    -0.0040     3.6860 ns         1 LJE      -0.023100
     14 C5           0.0050    -0.0010     2.4010 ca         1 LJE      -0.166600
     15 C6          -0.6930    -0.0010     1.1930 ca         1 LJE      -0.053000
     16 C7           3.5880     0.0000     1.1860 c3         1 LJE       0.642200
     17 C8          -0.7320    -0.0030     3.6830 c          1 LJE       0.582700
     18 C9          -6.0680     0.8560    10.9740 cp         1 LJE       0.491800
     19 C10         -6.8880     2.9260    10.3920 ca         1 LJE       0.632900
     20 C11         -7.3680     2.1490    12.5030 ca         1 LJE       0.446200
     21 C12         -6.6620     0.9910    12.2320 ca         1 LJE      -0.351600
     22 C13         -4.4300    -2.5170    11.1890 ca         1 LJE      -0.274300
     23 C14         -5.1570    -1.3980    11.5580 ca         1 LJE      -0.019000
     24 C15         -5.3010    -0.3640    10.6300 cp         1 LJE      -0.314800
     25 C16         -4.7060    -0.5000     9.3700 ca         1 LJE       0.655600
     26 C17         -3.8720    -2.5780     9.9260 ca         1 LJE       0.464200
     27 C18         -4.1550     0.3700     7.2820 ca         1 LJE       0.092100
     28 C19         -4.7450    -0.2760     6.2050 ca         1 LJE      -0.067300
     29 C20         -4.0570    -0.4010     5.0140 ca         1 LJE      -0.129000
     30 C21         -2.7770     0.1220     4.8940 ca         1 LJE      -0.091400
     31 C22         -2.1880     0.7690     5.9720 ca         1 LJE      -0.109000
     32 C23         -2.8780     0.8970     7.1610 ca         1 LJE      -0.078000
     33 H1          -0.5400    -0.0000    -0.9390 ha         1 LJE       0.113000
     34 H2           1.9230     0.0010    -0.9390 ha         1 LJE       0.122000
     35 H4           1.9480    -0.0010     3.3290 ha         1 LJE       0.139000
     36 HN4         -2.5810    -0.1080     2.8270 hn         1 LJE       0.170500
     37 H6          -1.7760    -0.0010     1.1910 ha         1 LJE       0.104000
     38 H10         -6.9780     3.7170     9.6570 h5         1 LJE       0.000100
     39 H11         -7.8410     2.2900    13.4670 h4         1 LJE      -0.015900
     40 H12         -6.5710     0.2090    12.9770 ha         1 LJE       0.127000
     41 H13         -4.2990    -3.3370    11.8840 ha         1 LJE       0.118000
     42 H14         -5.6040    -1.3260    12.5420 ha         1 LJE       0.114000
     43 H17         -3.3030    -3.4540     9.6380 h4         1 LJE      -0.019900
     44 H20         -4.5180    -0.9050     4.1730 ha         1 LJE       0.108000
     45 H22         -1.1900     1.1800     5.8780 ha         1 LJE       0.152000
     46 H23         -2.4180     1.4020     8.0020 ha         1 LJE       0.115000
     47 H24         -6.0780    -1.8460     6.7450 hc         1 LJE       0.013367
     48 H24A        -6.7200    -0.2170     6.9970 hc         1 LJE       0.013367
     49 H24B        -6.6040    -0.8790     5.3600 hc         1 LJE       0.013367
     50 C24         -6.1340    -0.8450     6.3360 c3         1 LJE       0.056200
@<TRIPOS>BOND
     1     1     5 ar  
     2     1    15 ar  
     3     1    33 1   
     4     2    16 1   
     5     3    18 ar  
     6     3    19 ar  
     7     4    25 1   
     8     4    27 1   
     9     5     9 ar  
    10     5    34 1   
    11     6    16 1   
    12     7    19 ar  
    13     7    20 ar  
    14     8    17 2   
    15     9    12 ar  
    16     9    16 1   
    17    10    16 1   
    18    11    25 ar  
    19    11    26 ar  
    20    12    14 ar  
    21    12    35 1   
    22    13    17 1   
    23    13    30 1   
    24    13    36 1   
    25    14    15 ar  
    26    14    17 1   
    27    15    37 1   
    28    18    21 ar  
    29    18    24 1   
    30    19    38 1   
    31    20    21 ar  
    32    20    39 1   
    33    21    40 1   
    34    22    23 ar  
    35    22    26 ar  
    36    22    41 1   
    37    23    24 ar  
    38    23    42 1   
    39    24    25 ar  
    40    26    43 1   
    41    27    28 ar  
    42    27    32 ar  
    43    28    29 ar  
    44    28    50 1   
    45    29    30 ar  
    46    29    44 1   
    47    30    31 ar  
    48    31    32 ar  
    49    31    45 1   
    50    32    46 1   
    51    47    50 1   
    52    48    50 1   
    53    49    50 1   
@<TRIPOS>SUBSTRUCTURE
     1 LJE         1 TEMP              0 ****  ****    0 ROOT
