@<TRIPOS>MOLECULE
LJF
   59    63     1     0     0
SMALL
bcc


@<TRIPOS>ATOM
      1 C10          0.0000     0.0000     0.0000 c2         1 LJF       0.508100
      2 N4           1.2920     0.0000     0.0000 ne         1 LJF      -0.560700
      3 C1           1.9770     0.0000     1.1870 ca         1 LJF       0.734000
      4 N1           3.3030     0.0000     1.1670 nb         1 LJF      -0.534000
      5 N2           1.2960     0.0060     2.3260 nb         1 LJF      -0.646000
      6 C4           1.9200     0.0080     3.4930 ca         1 LJF       0.427200
      7 C3           3.3060     0.0020     3.5210 ca         1 LJF      -0.134700
      8 F1           3.9740     0.0030     4.6950 f          1 LJF      -0.111900
      9 C2           3.9980     0.0000     2.3030 cp         1 LJF       0.475800
     10 C5           5.4790    -0.0050     2.2780 cp         1 LJF      -0.320800
     11 C6           6.2000    -0.8010     3.1720 ca         1 LJF      -0.007000
     12 C7           7.5830    -0.7720     3.1090 ca         1 LJF      -0.273300
     13 C8           8.2040     0.0340     2.1740 ca         1 LJF       0.466200
     14 N3           7.5020     0.7770     1.3380 nb         1 LJF      -0.651000
     15 C9           6.1790     0.7800     1.3550 ca         1 LJF       0.660600
     16 O1           5.4980     1.5550     0.4760 os         1 LJF      -0.319400
     17 C11          6.2080     2.2220    -0.4720 ca         1 LJF       0.096100
     18 C16          6.7280     1.5350    -1.5600 ca         1 LJF      -0.084000
     19 C15          7.4500     2.2130    -2.5230 ca         1 LJF      -0.115000
     20 C12          6.4090     3.5890    -0.3530 ca         1 LJF      -0.084000
     21 C13          7.1310     4.2670    -1.3150 ca         1 LJF      -0.115000
     22 C14          7.6560     3.5800    -2.4020 ca         1 LJF      -0.090400
     23 N5           8.3890     4.2670    -3.3770 ns         1 LJF      -0.029100
     24 C17          9.0390     5.4040    -3.0560 c          1 LJF       0.583700
     25 O2           9.0820     5.7730    -1.8980 o          1 LJF      -0.624100
     26 C18          9.6980     6.1990    -4.1090 ca         1 LJF      -0.169600
     27 C23          9.5560     5.8410    -5.4510 ca         1 LJF      -0.077000
     28 C22         10.1740     6.5880    -6.4310 ca         1 LJF      -0.110000
     29 C21         10.9380     7.6940    -6.0900 ca         1 LJF      -0.068000
     30 C20         11.0880     8.0600    -4.7680 ca         1 LJF      -0.121000
     31 C19         10.4670     7.3230    -3.7670 ca         1 LJF       0.075600
     32 N6          10.6160     7.6890    -2.4350 nu         1 LJF      -0.251000
     33 C24         11.4630     6.9560    -1.6000 ca         1 LJF       0.080600
     34 C25         11.5320     7.2530    -0.2440 ca         1 LJF      -0.178000
     35 C26         12.3690     6.5270     0.5790 ca         1 LJF      -0.054000
     36 C27         13.1390     5.5040     0.0550 ca         1 LJF      -0.162000
     37 C28         13.0740     5.2060    -1.2940 ca         1 LJF      -0.054000
     38 C29         12.2340     5.9250    -2.1210 ca         1 LJF      -0.178000
     39 H10         -0.5420     0.0000     0.9380 h4         1 LJF      -0.041200
     40 H10A        -0.5420    -0.0000    -0.9380 h4         1 LJF      -0.041200
     41 H4           1.3540     0.0130     4.4160 h4         1 LJF      -0.001900
     42 H6           5.6910    -1.4250     3.8960 ha         1 LJF       0.118000
     43 H7           8.1740    -1.3750     3.7870 ha         1 LJF       0.119000
     44 H8           9.2860     0.0580     2.1260 h4         1 LJF      -0.019900
     45 H16          6.5670     0.4680    -1.6550 ha         1 LJF       0.113500
     46 H15          7.8570     1.6760    -3.3720 ha         1 LJF       0.127500
     47 H12          6.0000     4.1250     0.4950 ha         1 LJF       0.113500
     48 H13          7.2890     5.3350    -1.2210 ha         1 LJF       0.127500
     49 HN5          8.4370     3.9100    -4.3110 hn         1 LJF       0.171500
     50 H23          8.9610     4.9780    -5.7230 ha         1 LJF       0.103000
     51 H22         10.0630     6.3100    -7.4720 ha         1 LJF       0.107000
     52 H21         11.4220     8.2740    -6.8670 ha         1 LJF       0.105000
     53 H20         11.6850     8.9270    -4.5110 ha         1 LJF       0.115000
     54 HN6         10.1410     8.4960    -2.0820 hn         1 LJF       0.291800
     55 H25         10.9290     8.0540     0.1670 ha         1 LJF       0.108000
     56 H26         12.4220     6.7570     1.6360 ha         1 LJF       0.094500
     57 H27         13.7960     4.9370     0.7030 ha         1 LJF       0.100000
     58 H28         13.6770     4.4030    -1.7000 ha         1 LJF       0.094500
     59 H29         12.1830     5.6910    -3.1780 ha         1 LJF       0.108000
@<TRIPOS>BOND
     1     1     2 2   
     2     1    39 1   
     3     1    40 1   
     4     2     3 1   
     5     3     4 ar  
     6     3     5 ar  
     7     4     9 ar  
     8     5     6 ar  
     9     6     7 ar  
    10     6    41 1   
    11     7     8 1   
    12     7     9 ar  
    13     9    10 1   
    14    10    11 ar  
    15    10    15 ar  
    16    11    12 ar  
    17    11    42 1   
    18    12    13 ar  
    19    12    43 1   
    20    13    14 ar  
    21    13    44 1   
    22    14    15 ar  
    23    15    16 1   
    24    16    17 1   
    25    17    18 ar  
    26    17    20 ar  
    27    18    19 ar  
    28    18    45 1   
    29    19    22 ar  
    30    19    46 1   
    31    20    21 ar  
    32    20    47 1   
    33    21    22 ar  
    34    21    48 1   
    35    22    23 1   
    36    23    24 1   
    37    23    49 1   
    38    24    25 2   
    39    24    26 1   
    40    26    27 ar  
    41    26    31 ar  
    42    27    28 ar  
    43    27    50 1   
    44    28    29 ar  
    45    28    51 1   
    46    29    30 ar  
    47    29    52 1   
    48    30    31 ar  
    49    30    53 1   
    50    31    32 1   
    51    32    33 1   
    52    32    54 1   
    53    33    34 ar  
    54    33    38 ar  
    55    34    35 ar  
    56    34    55 1   
    57    35    36 ar  
    58    35    56 1   
    59    36    37 ar  
    60    36    57 1   
    61    37    38 ar  
    62    37    58 1   
    63    38    59 1   
@<TRIPOS>SUBSTRUCTURE
     1 LJF         1 TEMP              0 ****  ****    0 ROOT
