@<TRIPOS>MOLECULE
molecule
   74    75     1     0     0
SMALL
bcc


@<TRIPOS>ATOM
      1 N1           0.0000     0.0000     0.0000 n7         1 LJG      -0.820200
      2 C5           1.4690     0.0000     0.0000 c3         1 LJG       0.134800
      3 C6           1.9790     0.0000     1.4430 c3         1 LJG       0.232800
      4 C8           4.1760     1.2630     1.3320 c3         1 LJG       0.239800
      5 C10          5.1960     0.9920     3.5980 c3         1 LJG      -0.089100
      6 C13          4.5320    -2.0260    -0.0680 ca         1 LJG      -0.376000
      7 C15          3.8010    -3.3310    -1.9380 ca         1 LJG      -0.233750
      8 C17          5.8800    -2.1290    -2.0460 ca         1 LJG      -0.233750
      9 C22         -2.7400    -1.2630    -3.4220 c3         1 LJG       0.239800
     10 C24         -5.1670    -1.3880    -2.8410 c3         1 LJG      -0.089100
     11 C28         -5.1610     2.2290    -1.9740 ca         1 LJG       0.018250
     12 C2          -0.5260     0.0010    -1.3710 c3         1 LJG       0.134800
     13 C3          -2.0560     0.0010    -1.3300 c3         1 LJG       0.232800
     14 N4          -2.5800     0.0010    -2.6990 n3         1 LJG      -0.816000
     15 S26         -2.9940     1.4290    -3.4270 sy         1 LJG       1.430700
     16 O35         -2.3270     2.4560    -2.7040 o          1 LJG      -0.642800
     17 O34         -2.8280     1.2300    -4.8240 o          1 LJG      -0.642800
     18 C27         -4.7180     1.6720    -3.1600 ca         1 LJG      -0.376000
     19 C32         -5.6260     1.3040    -4.1360 ca         1 LJG       0.018250
     20 C31         -6.9790     1.4930    -3.9290 ca         1 LJG      -0.233750
     21 C30         -7.4270     2.0530    -2.7400 ca         1 LJG       0.252600
     22 N33         -8.7930     2.2460    -2.5280 nv         1 LJG      -0.909700
     23 C29         -6.5120     2.4200    -1.7610 ca         1 LJG      -0.233750
     24 C23         -3.8210    -2.1070    -2.7420 c3         1 LJG      -0.099700
     25 C25         -3.9170    -3.4670    -3.4350 c3         1 LJG      -0.089100
     26 N7           3.4440    -0.0000     1.4430 n3         1 LJG      -0.816000
     27 S12          4.2710    -1.4290     1.5680 sy         1 LJG       1.430700
     28 O21          3.3890    -2.3500     2.1950 o          1 LJG      -0.642800
     29 O20          5.5540    -1.1050     2.0860 o          1 LJG      -0.642800
     30 C18          5.6730    -1.6630    -0.7620 ca         1 LJG       0.018250
     31 C16          4.9430    -2.9640    -2.6390 ca         1 LJG       0.252600
     32 N19          5.1490    -3.4380    -3.9360 nv         1 LJG      -0.909700
     33 C14          3.5990    -2.8610    -0.6550 ca         1 LJG       0.018250
     34 C9           4.3230     1.8910     2.7200 c3         1 LJG      -0.099700
     35 C11          4.9770     3.2690     2.5900 c3         1 LJG      -0.089100
     36 HN1         -0.3340     0.8090     0.4860 hn         1 LJG       0.353800
     37 H5           1.8300    -0.8850    -0.5110 h1         1 LJG       0.041200
     38 H5A          1.8300     0.8850    -0.5110 h1         1 LJG       0.041200
     39 H6           1.6170    -0.8840     1.9540 h1         1 LJG       0.064950
     40 H6A          1.6180     0.8850     1.9540 h1         1 LJG       0.064950
     41 H8           3.6320     1.9400     0.6850 h1         1 LJG       0.055700
     42 H8A          5.1590     1.0760     0.9150 h1         1 LJG       0.055700
     43 H10          5.4910     1.5340     4.4890 hc         1 LJG       0.038033
     44 H10A         4.6360     0.1090     3.8800 hc         1 LJG       0.038033
     45 H10B         6.0810     0.6980     3.0460 hc         1 LJG       0.038033
     46 H15          3.0680    -3.9840    -2.3980 ha         1 LJG       0.134500
     47 H17          6.7720    -1.8430    -2.5890 ha         1 LJG       0.134500
     48 H22         -3.0320    -1.0590    -4.4450 h1         1 LJG       0.055700
     49 H22A        -1.8020    -1.8040    -3.4150 h1         1 LJG       0.055700
     50 H24         -5.2960    -0.9990    -3.8430 hc         1 LJG       0.038033
     51 H24A        -5.1930    -0.5710    -2.1300 hc         1 LJG       0.038033
     52 H24B        -5.9650    -2.0850    -2.6180 hc         1 LJG       0.038033
     53 H28         -4.4470     2.5150    -1.2110 ha         1 LJG       0.148000
     54 H2          -0.1790    -0.8830    -1.8920 h1         1 LJG       0.041200
     55 H2A         -0.1790     0.8860    -1.8910 h1         1 LJG       0.041200
     56 H3          -2.4030     0.8860    -0.8100 h1         1 LJG       0.064950
     57 H3A         -2.4030    -0.8830    -0.8100 h1         1 LJG       0.064950
     58 H32         -5.2760     0.8680    -5.0640 ha         1 LJG       0.148000
     59 H31         -7.6890     1.2050    -4.6940 ha         1 LJG       0.134500
     60 HN33        -9.4530     1.9650    -3.2270 hn         1 LJG       0.434550
     61 HN3A        -9.1140     2.6650    -1.6770 hn         1 LJG       0.434550
     62 H29         -6.8590     2.8570    -0.8320 ha         1 LJG       0.134500
     63 H23         -3.5640    -2.2510    -1.6990 hc         1 LJG       0.054200
     64 H25         -4.2020    -3.3260    -4.4710 hc         1 LJG       0.038033
     65 H25A        -2.9550    -3.9640    -3.3900 hc         1 LJG       0.038033
     66 H25B        -4.6610    -4.0760    -2.9360 hc         1 LJG       0.038033
     67 H18          6.4040    -1.0120    -0.2990 ha         1 LJG       0.148000
     68 HN19         4.4730    -4.0410    -4.3620 hn         1 LJG       0.434550
     69 HN1A         5.9730    -3.1750    -4.4400 hn         1 LJG       0.434550
     70 H14          2.7090    -3.1470    -0.1080 ha         1 LJG       0.148000
     71 H9           3.3450     1.9980     3.1730 hc         1 LJG       0.054200
     72 H11          4.3680     3.8990     1.9530 hc         1 LJG       0.038033
     73 H11A         5.9630     3.1600     2.1550 hc         1 LJG       0.038033
     74 H11B         5.0620     3.7220     3.5700 hc         1 LJG       0.038033
@<TRIPOS>BOND
     1     1     2 1
     2     1    12 1
     3     2     3 1
     4     3    26 1
     5     4    26 1
     6     4    34 1
     7     5    34 1
     8     6    27 1
     9     6    30 ar
    10     6    33 ar
    11     7    31 ar
    12     7    33 ar
    13     8    30 ar
    14     8    31 ar
    15     9    14 1
    16     9    24 1
    17    10    24 1
    18    11    18 ar
    19    11    23 ar
    20    12    13 1
    21    13    14 1
    22    14    15 1
    23    15    16 2
    24    15    17 2
    25    15    18 1
    26    18    19 ar
    27    19    20 ar
    28    20    21 ar
    29    21    22 1
    30    21    23 ar
    31    24    25 1
    32    26    27 1
    33    27    28 2
    34    27    29 2
    35    31    32 1
    36    34    35 1
    37     1    36 1
    38     2    37 1
    39     2    38 1
    40     3    39 1
    41     3    40 1
    42     4    41 1
    43     4    42 1
    44     5    43 1
    45     5    44 1
    46     5    45 1
    47     7    46 1
    48     8    47 1
    49     9    48 1
    50     9    49 1
    51    10    50 1
    52    10    51 1
    53    10    52 1
    54    11    53 1
    55    12    54 1
    56    12    55 1
    57    13    56 1
    58    13    57 1
    59    19    58 1
    60    20    59 1
    61    22    60 1
    62    22    61 1
    63    23    62 1
    64    24    63 1
    65    25    64 1
    66    25    65 1
    67    25    66 1
    68    30    67 1
    69    32    68 1
    70    32    69 1
    71    33    70 1
    72    34    71 1
    73    35    72 1
    74    35    73 1
    75    35    74 1
@<TRIPOS>SUBSTRUCTURE
     1 LJG         1 TEMP              0 ****  ****    0 ROOT
