@<TRIPOS>MOLECULE
LJG
   74    75     1     0     0
SMALL
bcc


@<TRIPOS>ATOM
      1 N1           0.0000     0.0000     0.0000 n7         1 LJG      -0.579200
      2 C5           1.4690     0.0000     0.0000 c3         1 LJG       0.112300
      3 C6           1.9790     0.0000     1.4430 c3         1 LJG       0.227300
      4 C8           4.1760     1.2630     1.3320 c3         1 LJG       0.234300
      5 C10          5.1960     0.9920     3.5980 c3         1 LJG      -0.003350
      6 C13          4.5320    -2.0260    -0.0680 ca         1 LJG      -0.225000
      7 C15          3.8010    -3.3310    -1.9380 ca         1 LJG      -0.222750
      8 C17          5.8800    -2.1290    -2.0460 ca         1 LJG      -0.222750
      9 C22         -2.7400    -1.2630    -3.4220 c3         1 LJG       0.234300
     10 C24         -5.1670    -1.3880    -2.8410 c3         1 LJG      -0.003350
     11 C28         -5.1610     2.2290    -1.9740 ca         1 LJG       0.056750
     12 C2          -0.5260     0.0010    -1.3710 c3         1 LJG       0.112300
     13 C3          -2.0560     0.0010    -1.3300 c3         1 LJG       0.227300
     14 N4          -2.5800     0.0010    -2.6990 n3         1 LJG      -0.523500
     15 S26         -2.9940     1.4290    -3.4270 sy         1 LJG       1.054200
     16 O35         -2.3270     2.4560    -2.7040 o          1 LJG      -0.593300
     17 O34         -2.8280     1.2300    -4.8240 o          1 LJG      -0.593300
     18 C27         -4.7180     1.6720    -3.1600 ca         1 LJG      -0.225000
     19 C32         -5.6260     1.3040    -4.1360 ca         1 LJG       0.056750
     20 C31         -6.9790     1.4930    -3.9290 ca         1 LJG      -0.222750
     21 C30         -7.4270     2.0530    -2.7400 ca         1 LJG       0.098100
     22 N33         -8.7930     2.2460    -2.5280 nv         1 LJG      -0.427700
     23 C29         -6.5120     2.4200    -1.7610 ca         1 LJG      -0.222750
     24 C23         -3.8210    -2.1070    -2.7420 c3         1 LJG      -0.081200
     25 C25         -3.9170    -3.4670    -3.4350 c3         1 LJG      -0.003350
     26 N7           3.4440    -0.0000     1.4430 n3         1 LJG      -0.523500
     27 S12          4.2710    -1.4290     1.5680 sy         1 LJG       1.054200
     28 O21          3.3890    -2.3500     2.1950 o          1 LJG      -0.593300
     29 O20          5.5540    -1.1050     2.0860 o          1 LJG      -0.593300
     30 C18          5.6730    -1.6630    -0.7620 ca         1 LJG       0.056750
     31 C16          4.9430    -2.9640    -2.6390 ca         1 LJG       0.098100
     32 N19          5.1490    -3.4380    -3.9360 nv         1 LJG      -0.427700
     33 C14          3.5990    -2.8610    -0.6550 ca         1 LJG       0.056750
     34 C9           4.3230     1.8910     2.7200 c3         1 LJG      -0.081200
     35 C11          4.9770     3.2690     2.5900 c3         1 LJG      -0.003350
     36 HN1         -0.3340     0.8090     0.4860 hn         1 LJG       0.253800
     37 H5           1.8300    -0.8850    -0.5110 h1         1 LJG       0.014950
     38 H5A          1.8300     0.8850    -0.5110 h1         1 LJG       0.014950
     39 H6           1.6170    -0.8840     1.9540 h1         1 LJG       0.030700
     40 H6A          1.6180     0.8850     1.9540 h1         1 LJG       0.030700
     41 H8           3.6320     1.9400     0.6850 h1         1 LJG       0.024200
     42 H8A          5.1590     1.0760     0.9150 h1         1 LJG       0.024200
     43 H10          5.4910     1.5340     4.4890 hc         1 LJG       0.008117
     44 H10A         4.6360     0.1090     3.8800 hc         1 LJG       0.008117
     45 H10B         6.0810     0.6980     3.0460 hc         1 LJG       0.008117
     46 H15          3.0680    -3.9840    -2.3980 ha         1 LJG       0.113500
     47 H17          6.7720    -1.8430    -2.5890 ha         1 LJG       0.113500
     48 H22         -3.0320    -1.0590    -4.4450 h1         1 LJG       0.024200
     49 H22A        -1.8020    -1.8040    -3.4150 h1         1 LJG       0.024200
     50 H24         -5.2960    -0.9990    -3.8430 hc         1 LJG       0.008117
     51 H24A        -5.1930    -0.5710    -2.1300 hc         1 LJG       0.008117
     52 H24B        -5.9650    -2.0850    -2.6180 hc         1 LJG       0.008117
     53 H28         -4.4470     2.5150    -1.2110 ha         1 LJG       0.118500
     54 H2          -0.1790    -0.8830    -1.8920 h1         1 LJG       0.014950
     55 H2A         -0.1790     0.8860    -1.8910 h1         1 LJG       0.014950
     56 H3          -2.4030     0.8860    -0.8100 h1         1 LJG       0.030700
     57 H3A         -2.4030    -0.8830    -0.8100 h1         1 LJG       0.030700
     58 H32         -5.2760     0.8680    -5.0640 ha         1 LJG       0.118500
     59 H31         -7.6890     1.2050    -4.6940 ha         1 LJG       0.113500
     60 HN33        -9.4530     1.9650    -3.2270 hn         1 LJG       0.268300
     61 HN3A        -9.1140     2.6650    -1.6770 hn         1 LJG       0.268300
     62 H29         -6.8590     2.8570    -0.8320 ha         1 LJG       0.113500
     63 H23         -3.5640    -2.2510    -1.6990 hc         1 LJG       0.029200
     64 H25         -4.2020    -3.3260    -4.4710 hc         1 LJG       0.008117
     65 H25A        -2.9550    -3.9640    -3.3900 hc         1 LJG       0.008117
     66 H25B        -4.6610    -4.0760    -2.9360 hc         1 LJG       0.008117
     67 H18          6.4040    -1.0120    -0.2990 ha         1 LJG       0.118500
     68 HN19         4.4730    -4.0410    -4.3620 hn         1 LJG       0.268300
     69 HN1A         5.9730    -3.1750    -4.4400 hn         1 LJG       0.268300
     70 H14          2.7090    -3.1470    -0.1080 ha         1 LJG       0.118500
     71 H9           3.3450     1.9980     3.1730 hc         1 LJG       0.029200
     72 H11          4.3680     3.8990     1.9530 hc         1 LJG       0.008117
     73 H11A         5.9630     3.1600     2.1550 hc         1 LJG       0.008117
     74 H11B         5.0620     3.7220     3.5700 hc         1 LJG       0.008117
@<TRIPOS>BOND
     1     1     2 1   
     2     1    12 1   
     3     1    36 1   
     4     2     3 1   
     5     2    37 1   
     6     2    38 1   
     7     3    26 1   
     8     3    39 1   
     9     3    40 1   
    10     4    26 1   
    11     4    34 1   
    12     4    41 1   
    13     4    42 1   
    14     5    34 1   
    15     5    43 1   
    16     5    44 1   
    17     5    45 1   
    18     6    27 1   
    19     6    30 ar  
    20     6    33 ar  
    21     7    31 ar  
    22     7    33 ar  
    23     7    46 1   
    24     8    30 ar  
    25     8    31 ar  
    26     8    47 1   
    27     9    14 1   
    28     9    24 1   
    29     9    48 1   
    30     9    49 1   
    31    10    24 1   
    32    10    50 1   
    33    10    51 1   
    34    10    52 1   
    35    11    18 ar  
    36    11    23 ar  
    37    11    53 1   
    38    12    13 1   
    39    12    54 1   
    40    12    55 1   
    41    13    14 1   
    42    13    56 1   
    43    13    57 1   
    44    14    15 1   
    45    15    16 2   
    46    15    17 2   
    47    15    18 1   
    48    18    19 ar  
    49    19    20 ar  
    50    19    58 1   
    51    20    21 ar  
    52    20    59 1   
    53    21    22 1   
    54    21    23 ar  
    55    22    60 1   
    56    22    61 1   
    57    23    62 1   
    58    24    25 1   
    59    24    63 1   
    60    25    64 1   
    61    25    65 1   
    62    25    66 1   
    63    26    27 1   
    64    27    28 2   
    65    27    29 2   
    66    30    67 1   
    67    31    32 1   
    68    32    68 1   
    69    32    69 1   
    70    33    70 1   
    71    34    35 1   
    72    34    71 1   
    73    35    72 1   
    74    35    73 1   
    75    35    74 1   
@<TRIPOS>SUBSTRUCTURE
     1 LJG         1 TEMP              0 ****  ****    0 ROOT
