@<TRIPOS>MOLECULE
molecule
   76    79     1     0     0
SMALL
bcc


@<TRIPOS>ATOM
      1 N1           0.0000     0.0000     0.0000 n7         1 LJH      -0.820200
      2 C5           1.4690     0.0000     0.0000 c3         1 LJH       0.130300
      3 C6           1.9790     0.0000     1.4420 c3         1 LJH       0.233800
      4 C8          -2.7400    -1.2630    -3.4220 c3         1 LJH       0.288100
      5 C10         -0.5680    -2.5050    -3.4510 ca         1 LJH      -0.112250
      6 C13          0.0870    -1.4400    -5.9160 ca         1 LJH      -0.132750
      7 C17         -4.8600     2.4800    -1.7330 ca         1 LJH      -0.003750
      8 C28          5.5520     2.1490     4.7350 ca         1 LJH      -0.132750
      9 C2          -0.5260     0.0000    -1.3710 c3         1 LJH       0.130300
     10 C3          -2.0560     0.0000    -1.3300 c3         1 LJH       0.233800
     11 N4          -2.5810     0.0000    -2.6980 n3         1 LJH      -0.812000
     12 C27          5.4190     1.5800     3.4810 ca         1 LJH      -0.112250
     13 C31          3.3540     2.7500     3.1690 ca         1 LJH      -0.112250
     14 C30          3.4870     3.3170     4.4230 ca         1 LJH      -0.132750
     15 C29          4.5850     3.0160     5.2060 ca         1 LJH      -0.123000
     16 C25          4.1770     1.2640     1.3310 c3         1 LJH       0.288100
     17 N7           3.4450    -0.0000     1.4430 n3         1 LJH      -0.812000
     18 C18         -6.1470     2.7820    -1.3360 ca         1 LJH      -0.200250
     19 C16         -4.6390     1.8140    -2.9250 ca         1 LJH      -0.350000
     20 C14         -1.1090    -1.1010    -5.3130 ca         1 LJH      -0.112250
     21 C9          -1.4370    -1.6330    -4.0800 ca         1 LJH      -0.119800
     22 C11          0.6290    -2.8440    -4.0550 ca         1 LJH      -0.132750
     23 S15         -2.9940     1.4290    -3.4260 sy         1 LJH       1.430200
     24 O24         -2.1580     2.4270    -2.8570 o          1 LJH      -0.640800
     25 O23         -3.0510     1.1670    -4.8220 o          1 LJH      -0.640800
     26 C21         -5.7070     1.4480    -3.7240 ca         1 LJH      -0.003750
     27 C20         -6.9980     1.7480    -3.3330 ca         1 LJH      -0.200250
     28 C19         -7.2220     2.4160    -2.1360 ca         1 LJH       0.237600
     29 N22         -8.5260     2.7210    -1.7400 nv         1 LJH      -0.953700
     30 C12          0.9560    -2.3120    -5.2870 ca         1 LJH      -0.123000
     31 S32          4.2720    -1.4290     1.5670 sy         1 LJH       1.430200
     32 O41          5.5550    -1.1060     2.0850 o          1 LJH      -0.640800
     33 O40          3.3910    -2.3510     2.1940 o          1 LJH      -0.640800
     34 C33          4.5320    -2.0260    -0.0710 ca         1 LJH      -0.350000
     35 C38          5.6730    -1.6620    -0.7640 ca         1 LJH      -0.003750
     36 C37          5.8800    -2.1280    -2.0470 ca         1 LJH      -0.200250
     37 C36          4.9420    -2.9620    -2.6420 ca         1 LJH       0.237600
     38 N39          5.1480    -3.4350    -3.9400 nv         1 LJH      -0.953700
     39 C35          3.7980    -3.3260    -1.9420 ca         1 LJH      -0.200250
     40 C34          3.5990    -2.8610    -0.6570 ca         1 LJH      -0.003750
     41 C26          4.3210     1.8810     2.6990 ca         1 LJH      -0.119800
     42 HN1         -0.3340     0.8090     0.4850 hn         1 LJH       0.350800
     43 H5           1.8310     0.8840    -0.5110 h1         1 LJH       0.046200
     44 H5A          1.8310    -0.8850    -0.5110 h1         1 LJH       0.046200
     45 H6           1.6170    -0.8840     1.9530 h1         1 LJH       0.063450
     46 H6A          1.6180     0.8850     1.9530 h1         1 LJH       0.063450
     47 H8          -3.5080    -1.1520    -4.1780 h1         1 LJH       0.058950
     48 H8A         -3.0280    -2.0430    -2.7270 h1         1 LJH       0.058950
     49 H13          0.3440    -1.0230    -6.8830 ha         1 LJH       0.129250
     50 H17         -4.0210     2.7650    -1.1100 ha         1 LJH       0.148000
     51 H28          6.4130     1.9120     5.3480 ha         1 LJH       0.129250
     52 H2          -0.1790    -0.8840    -1.8910 h1         1 LJH       0.046200
     53 H2A         -0.1780     0.8850    -1.8910 h1         1 LJH       0.046200
     54 H3          -2.4030    -0.8840    -0.8100 h1         1 LJH       0.063450
     55 H3A         -2.4030     0.8850    -0.8100 h1         1 LJH       0.063450
     56 H27          6.1770     0.9000     3.1120 ha         1 LJH       0.145750
     57 H31          2.4930     2.9870     2.5560 ha         1 LJH       0.145750
     58 H30          2.7290     3.9980     4.7930 ha         1 LJH       0.129250
     59 H29          4.6890     3.4610     6.1880 ha         1 LJH       0.126000
     60 H25          5.1590     1.0770     0.9140 h1         1 LJH       0.058950
     61 H25A         3.6320     1.9410     0.6850 h1         1 LJH       0.058950
     62 H18         -6.3190     3.3030    -0.4020 ha         1 LJH       0.138000
     63 H14         -1.7900    -0.4180    -5.8070 ha         1 LJH       0.145750
     64 H11          1.3100    -3.5270    -3.5610 ha         1 LJH       0.129250
     65 H21         -5.5310     0.9270    -4.6570 ha         1 LJH       0.148000
     66 H20         -7.8340     1.4610    -3.9600 ha         1 LJH       0.138000
     67 HN22        -8.9420     3.5890    -2.0130 hn         1 LJH       0.434300
     68 HN2A        -9.0450     2.0710    -1.1820 hn         1 LJH       0.434300
     69 H12          1.8940    -2.5780    -5.7610 ha         1 LJH       0.126000
     70 H38          6.4040    -1.0120    -0.2990 ha         1 LJH       0.148000
     71 H37          6.7730    -1.8420    -2.5900 ha         1 LJH       0.138000
     72 HN39         5.9740    -3.1740    -4.4420 hn         1 LJH       0.434300
     73 HN3A         4.4790    -4.0470    -4.3620 hn         1 LJH       0.434300
     74 H35          3.0650    -3.9780    -2.4020 ha         1 LJH       0.138000
     75 H34          2.7070    -3.1440    -0.1110 ha         1 LJH       0.148000
     76 H10         -0.8240    -2.9220    -2.4840 ha         1 LJH       0.145750
@<TRIPOS>BOND
     1     1     2 1
     2     1     9 1
     3     2     3 1
     4     3    17 1
     5     4    11 1
     6     4    21 1
     7     5    21 ar
     8     5    22 ar
     9     6    20 ar
    10     6    30 ar
    11     7    18 ar
    12     7    19 ar
    13     8    12 ar
    14     8    15 ar
    15     9    10 1
    16    10    11 1
    17    11    23 1
    18    12    41 ar
    19    13    14 ar
    20    13    41 ar
    21    14    15 ar
    22    16    17 1
    23    16    41 1
    24    17    31 1
    25    18    28 ar
    26    19    23 1
    27    19    26 ar
    28    20    21 ar
    29    22    30 ar
    30    23    24 2
    31    23    25 2
    32    26    27 ar
    33    27    28 ar
    34    28    29 1
    35    31    32 2
    36    31    33 2
    37    31    34 1
    38    34    35 ar
    39    34    40 ar
    40    35    36 ar
    41    36    37 ar
    42    37    38 1
    43    37    39 ar
    44    39    40 ar
    45     1    42 1
    46     2    43 1
    47     2    44 1
    48     3    45 1
    49     3    46 1
    50     4    47 1
    51     4    48 1
    52     5    76 1
    53     6    49 1
    54     7    50 1
    55     8    51 1
    56     9    52 1
    57     9    53 1
    58    10    54 1
    59    10    55 1
    60    12    56 1
    61    13    57 1
    62    14    58 1
    63    15    59 1
    64    16    60 1
    65    16    61 1
    66    18    62 1
    67    20    63 1
    68    22    64 1
    69    26    65 1
    70    27    66 1
    71    29    67 1
    72    29    68 1
    73    30    69 1
    74    35    70 1
    75    36    71 1
    76    38    72 1
    77    38    73 1
    78    39    74 1
    79    40    75 1
@<TRIPOS>SUBSTRUCTURE
     1 LJH         1 TEMP              0 ****  ****    0 ROOT
