@<TRIPOS>MOLECULE
LJH
   76    79     1     0     0
SMALL
bcc


@<TRIPOS>ATOM
      1 N1           0.0000     0.0000     0.0000 n7         1 LJH      -0.577200
      2 C5           1.4690     0.0000     0.0000 c3         1 LJH       0.098800
      3 C6           1.9790     0.0000     1.4420 c3         1 LJH       0.231300
      4 C8          -2.7400    -1.2630    -3.4220 c3         1 LJH       0.300100
      5 C10         -0.5680    -2.5050    -3.4510 ca         1 LJH      -0.086000
      6 C13          0.0870    -1.4400    -5.9160 ca         1 LJH      -0.107500
      7 C17         -4.8600     2.4800    -1.7330 ca         1 LJH       0.032750
      8 C28          5.5520     2.1490     4.7350 ca         1 LJH      -0.107500
      9 C2          -0.5260     0.0000    -1.3710 c3         1 LJH       0.098800
     10 C3          -2.0560     0.0000    -1.3300 c3         1 LJH       0.231300
     11 N4          -2.5810     0.0000    -2.6980 n3         1 LJH      -0.521500
     12 C27          5.4190     1.5800     3.4810 ca         1 LJH      -0.086000
     13 C31          3.3540     2.7500     3.1690 ca         1 LJH      -0.086000
     14 C30          3.4870     3.3170     4.4230 ca         1 LJH      -0.107500
     15 C29          4.5850     3.0160     5.2060 ca         1 LJH      -0.098000
     16 C25          4.1770     1.2640     1.3310 c3         1 LJH       0.300100
     17 N7           3.4450    -0.0000     1.4430 n3         1 LJH      -0.521500
     18 C18         -6.1470     2.7820    -1.3360 ca         1 LJH      -0.184750
     19 C16         -4.6390     1.8140    -2.9250 ca         1 LJH      -0.195000
     20 C14         -1.1090    -1.1010    -5.3130 ca         1 LJH      -0.086000
     21 C9          -1.4370    -1.6330    -4.0800 ca         1 LJH      -0.130800
     22 C11          0.6290    -2.8440    -4.0550 ca         1 LJH      -0.107500
     23 S15         -2.9940     1.4290    -3.4260 sy         1 LJH       1.053700
     24 O24         -2.1580     2.4270    -2.8570 o          1 LJH      -0.592300
     25 O23         -3.0510     1.1670    -4.8220 o          1 LJH      -0.592300
     26 C21         -5.7070     1.4480    -3.7240 ca         1 LJH       0.032750
     27 C20         -6.9980     1.7480    -3.3330 ca         1 LJH      -0.184750
     28 C19         -7.2220     2.4160    -2.1360 ca         1 LJH       0.093100
     29 N22         -8.5260     2.7210    -1.7400 nv         1 LJH      -0.499200
     30 C12          0.9560    -2.3120    -5.2870 ca         1 LJH      -0.098000
     31 S32          4.2720    -1.4290     1.5670 sy         1 LJH       1.053700
     32 O41          5.5550    -1.1060     2.0850 o          1 LJH      -0.592300
     33 O40          3.3910    -2.3510     2.1940 o          1 LJH      -0.592300
     34 C33          4.5320    -2.0260    -0.0710 ca         1 LJH      -0.195000
     35 C38          5.6730    -1.6620    -0.7640 ca         1 LJH       0.032750
     36 C37          5.8800    -2.1280    -2.0470 ca         1 LJH      -0.184750
     37 C36          4.9420    -2.9620    -2.6420 ca         1 LJH       0.093100
     38 N39          5.1480    -3.4350    -3.9400 nv         1 LJH      -0.499200
     39 C35          3.7980    -3.3260    -1.9420 ca         1 LJH      -0.184750
     40 C34          3.5990    -2.8610    -0.6570 ca         1 LJH       0.032750
     41 C26          4.3210     1.8810     2.6990 ca         1 LJH      -0.130800
     42 HN1         -0.3340     0.8090     0.4850 hn         1 LJH       0.250800
     43 H5           1.8310     0.8840    -0.5110 h1         1 LJH       0.021950
     44 H5A          1.8310    -0.8850    -0.5110 h1         1 LJH       0.021950
     45 H6           1.6170    -0.8840     1.9530 h1         1 LJH       0.028700
     46 H6A          1.6180     0.8850     1.9530 h1         1 LJH       0.028700
     47 H8          -3.5080    -1.1520    -4.1780 h1         1 LJH       0.021700
     48 H8A         -3.0280    -2.0430    -2.7270 h1         1 LJH       0.021700
     49 H13          0.3440    -1.0230    -6.8830 ha         1 LJH       0.102000
     50 H17         -4.0210     2.7650    -1.1100 ha         1 LJH       0.119250
     51 H28          6.4130     1.9120     5.3480 ha         1 LJH       0.102000
     52 H2          -0.1790    -0.8840    -1.8910 h1         1 LJH       0.021950
     53 H2A         -0.1780     0.8850    -1.8910 h1         1 LJH       0.021950
     54 H3          -2.4030    -0.8840    -0.8100 h1         1 LJH       0.028700
     55 H3A         -2.4030     0.8850    -0.8100 h1         1 LJH       0.028700
     56 H27          6.1770     0.9000     3.1120 ha         1 LJH       0.123500
     57 H31          2.4930     2.9870     2.5560 ha         1 LJH       0.123500
     58 H30          2.7290     3.9980     4.7930 ha         1 LJH       0.102000
     59 H29          4.6890     3.4610     6.1880 ha         1 LJH       0.097500
     60 H25          5.1590     1.0770     0.9140 h1         1 LJH       0.021700
     61 H25A         3.6320     1.9410     0.6850 h1         1 LJH       0.021700
     62 H18         -6.3190     3.3030    -0.4020 ha         1 LJH       0.114250
     63 H14         -1.7900    -0.4180    -5.8070 ha         1 LJH       0.123500
     64 H11          1.3100    -3.5270    -3.5610 ha         1 LJH       0.102000
     65 H21         -5.5310     0.9270    -4.6570 ha         1 LJH       0.119250
     66 H20         -7.8340     1.4610    -3.9600 ha         1 LJH       0.114250
     67 HN22        -8.9420     3.5890    -2.0130 hn         1 LJH       0.273800
     68 HN2A        -9.0450     2.0710    -1.1820 hn         1 LJH       0.273800
     69 H12          1.8940    -2.5780    -5.7610 ha         1 LJH       0.097500
     70 H38          6.4040    -1.0120    -0.2990 ha         1 LJH       0.119250
     71 H37          6.7730    -1.8420    -2.5900 ha         1 LJH       0.114250
     72 HN39         5.9740    -3.1740    -4.4420 hn         1 LJH       0.273800
     73 HN3A         4.4790    -4.0470    -4.3620 hn         1 LJH       0.273800
     74 H35          3.0650    -3.9780    -2.4020 ha         1 LJH       0.114250
     75 H34          2.7070    -3.1440    -0.1110 ha         1 LJH       0.119250
     76 H10         -0.8240    -2.9220    -2.4840 ha         1 LJH       0.123500
@<TRIPOS>BOND
     1     1     2 1   
     2     1     9 1   
     3     1    42 1   
     4     2     3 1   
     5     2    43 1   
     6     2    44 1   
     7     3    17 1   
     8     3    45 1   
     9     3    46 1   
    10     4    11 1   
    11     4    21 1   
    12     4    47 1   
    13     4    48 1   
    14     5    21 ar  
    15     5    22 ar  
    16     5    76 1   
    17     6    20 ar  
    18     6    30 ar  
    19     6    49 1   
    20     7    18 ar  
    21     7    19 ar  
    22     7    50 1   
    23     8    12 ar  
    24     8    15 ar  
    25     8    51 1   
    26     9    10 1   
    27     9    52 1   
    28     9    53 1   
    29    10    11 1   
    30    10    54 1   
    31    10    55 1   
    32    11    23 1   
    33    12    41 ar  
    34    12    56 1   
    35    13    14 ar  
    36    13    41 ar  
    37    13    57 1   
    38    14    15 ar  
    39    14    58 1   
    40    15    59 1   
    41    16    17 1   
    42    16    41 1   
    43    16    60 1   
    44    16    61 1   
    45    17    31 1   
    46    18    28 ar  
    47    18    62 1   
    48    19    23 1   
    49    19    26 ar  
    50    20    21 ar  
    51    20    63 1   
    52    22    30 ar  
    53    22    64 1   
    54    23    24 2   
    55    23    25 2   
    56    26    27 ar  
    57    26    65 1   
    58    27    28 ar  
    59    27    66 1   
    60    28    29 1   
    61    29    67 1   
    62    29    68 1   
    63    30    69 1   
    64    31    32 2   
    65    31    33 2   
    66    31    34 1   
    67    34    35 ar  
    68    34    40 ar  
    69    35    36 ar  
    70    35    70 1   
    71    36    37 ar  
    72    36    71 1   
    73    37    38 1   
    74    37    39 ar  
    75    38    72 1   
    76    38    73 1   
    77    39    40 ar  
    78    39    74 1   
    79    40    75 1   
@<TRIPOS>SUBSTRUCTURE
     1 LJH         1 TEMP              0 ****  ****    0 ROOT
