@<TRIPOS>MOLECULE
LJZ
   64    66     1     0     0
SMALL
bcc


@<TRIPOS>ATOM
      1 OAA          0.0000     0.0000     0.0000 o          1 LJZ      -0.579100
      2 OAB         -4.8070     0.0020    -8.3230 o          1 LJZ      -0.579100
      3 OAC          2.9400    -0.0010     3.7720 o          1 LJZ      -0.638600
      4 OAD         -6.6060     0.0040   -12.7540 o          1 LJZ      -0.638600
      5 CAG          1.9060     0.0030    -3.4340 ce         1 LJZ       0.004100
      6 CAH         -0.8800     0.0040    -8.2580 ce         1 LJZ       0.004100
      7 CAI          3.1280    -0.3030     8.5420 ca         1 LJZ      -0.108000
      8 CAJ        -10.6440    -0.3450   -15.2960 ca         1 LJZ      -0.108000
      9 CAK          3.6830     0.3900     7.4820 ca         1 LJZ      -0.077500
     10 CAL         -9.3560    -0.8400   -15.1940 ca         1 LJZ      -0.077500
     11 CAM          1.8860    -0.8960     8.4110 ca         1 LJZ      -0.080000
     12 CAN        -11.2420     0.2640   -14.2090 ca         1 LJZ      -0.080000
     13 CAO          2.9970     0.4910     6.2860 ca         1 LJZ      -0.105500
     14 CAP         -8.6630    -0.7260   -14.0050 ca         1 LJZ      -0.105500
     15 CAQ          1.9140     0.0040    -5.8740 cd         1 LJZ      -0.083500
     16 CAR          1.2370     0.0040    -7.0460 cc         1 LJZ      -0.083500
     17 CAS         -0.2110     0.0010    -4.6460 cd         1 LJZ      -0.083500
     18 CAT         -0.8890     0.0010    -5.8180 cc         1 LJZ      -0.083500
     19 CAU          1.9680     0.0000     1.3040 c3         1 LJZ      -0.068400
     20 CAV         -4.9540     0.0030   -10.6800 c3         1 LJZ      -0.068400
     21 CAW          0.9740    -0.0010     2.4680 c3         1 LJZ      -0.092900
     22 CAX         -6.4590     0.0030   -10.3990 c3         1 LJZ      -0.092900
     23 NAY          1.2410     0.0010    -2.2820 ne         1 LJZ      -0.056100
     24 NAZ         -2.2120     0.0040    -8.2580 ne         1 LJZ      -0.056100
     25 NBA          1.8860     0.0020    -1.1640 nf         1 LJZ      -0.325900
     26 NBB         -2.8570     0.0040    -9.3740 nf         1 LJZ      -0.325900
     27 NBC          1.0540    -0.0020     4.9400 ns         1 LJZ      -0.033100
     28 NBD         -8.5600     0.0020   -11.7040 ns         1 LJZ      -0.033100
     29 CBE          1.2140     0.0000     0.0000 c          1 LJZ       0.695000
     30 CBF         -4.2000     0.0030    -9.3740 c          1 LJZ       0.695000
     31 CBG          1.7280    -0.0010     3.7720 c          1 LJZ       0.562100
     32 CBH         -7.2120     0.0030   -11.7040 c          1 LJZ       0.562100
     33 CBI          1.2060     0.0030    -4.6470 cd         1 LJZ       0.033000
     34 CBJ         -0.1800     0.0030    -7.0450 cd         1 LJZ       0.033000
     35 CBK          1.1950    -0.7990     7.2180 ca         1 LJZ      -0.068600
     36 CBL        -10.5540     0.3810   -13.0160 ca         1 LJZ      -0.068600
     37 CBM          1.7500    -0.1030     6.1500 ca         1 LJZ      -0.081900
     38 CBN         -9.2600    -0.1140   -12.9110 ca         1 LJZ      -0.081900
     39 HAG          2.9890     0.0030    -3.4340 h4         1 LJZ       0.115000
     40 HAH         -0.3390     0.0050    -9.1960 h4         1 LJZ       0.115000
     41 HAI          3.6680    -0.3810     9.4780 ha         1 LJZ       0.106000
     42 HAJ        -11.1850    -0.4360   -16.2300 ha         1 LJZ       0.106000
     43 HAK          4.6560     0.8530     7.5880 ha         1 LJZ       0.106000
     44 HAL         -8.8910    -1.3170   -16.0480 ha         1 LJZ       0.106000
     45 HAM          1.4540    -1.4380     9.2430 ha         1 LJZ       0.114000
     46 HAN        -12.2500     0.6510   -14.2920 ha         1 LJZ       0.114000
     47 HAO          3.4320     1.0340     5.4560 ha         1 LJZ       0.153000
     48 HAP         -7.6550    -1.1140   -13.9260 ha         1 LJZ       0.153000
     49 HAQ          2.9970     0.0050    -5.8740 ha         1 LJZ       0.129000
     50 HAR          1.7790     0.0050    -7.9840 ha         1 LJZ       0.129000
     51 HAS         -0.7520    -0.0000    -3.7080 ha         1 LJZ       0.129000
     52 HAT         -1.9720    -0.0000    -5.8180 ha         1 LJZ       0.129000
     53 HAU          2.5910    -0.8840     1.3610 hc         1 LJZ       0.051950
     54 HAUA         2.5900     0.8850     1.3610 hc         1 LJZ       0.051950
     55 HAV         -4.6930     0.8880   -11.2480 hc         1 LJZ       0.051950
     56 HAVA        -4.6920    -0.8810   -11.2480 hc         1 LJZ       0.051950
     57 HAW          0.3500     0.8830     2.4120 hc         1 LJZ       0.042950
     58 HAWA         0.3510    -0.8860     2.4110 hc         1 LJZ       0.042950
     59 HAX         -6.7200     0.8870    -9.8310 hc         1 LJZ       0.042950
     60 HAXA        -6.7200    -0.8820    -9.8310 hc         1 LJZ       0.042950
     61 HNBC         0.0580     0.1010     4.9430 hn         1 LJZ       0.177500
     62 HNBD        -9.0600     0.0560   -10.8390 hn         1 LJZ       0.177500
     63 ClAE        -0.3650    -1.5430     7.0530 cl         1 LJZ      -0.029900
     64 ClAF       -11.3050     1.1470   -11.6510 cl         1 LJZ      -0.029900
@<TRIPOS>BOND
     1     1    29 2   
     2     2    30 2   
     3     3    31 2   
     4     4    32 2   
     5     5    23 1   
     6     5    33 2   
     7     5    39 1   
     8     6    24 1   
     9     6    34 2   
    10     6    40 1   
    11     7     9 ar  
    12     7    11 ar  
    13     7    41 1   
    14     8    10 ar  
    15     8    12 ar  
    16     8    42 1   
    17     9    13 ar  
    18     9    43 1   
    19    10    14 ar  
    20    10    44 1   
    21    11    35 ar  
    22    11    45 1   
    23    12    36 ar  
    24    12    46 1   
    25    13    37 ar  
    26    13    47 1   
    27    14    38 ar  
    28    14    48 1   
    29    15    16 2   
    30    15    33 1   
    31    15    49 1   
    32    16    34 1   
    33    16    50 1   
    34    17    18 2   
    35    17    33 1   
    36    17    51 1   
    37    18    34 1   
    38    18    52 1   
    39    19    21 1   
    40    19    29 1   
    41    19    53 1   
    42    19    54 1   
    43    20    22 1   
    44    20    30 1   
    45    20    55 1   
    46    20    56 1   
    47    21    31 1   
    48    21    57 1   
    49    21    58 1   
    50    22    32 1   
    51    22    59 1   
    52    22    60 1   
    53    23    25 2   
    54    24    26 2   
    55    25    29 1   
    56    26    30 1   
    57    27    31 1   
    58    27    37 1   
    59    27    61 1   
    60    28    32 1   
    61    28    38 1   
    62    28    62 1   
    63    35    37 ar  
    64    35    63 1   
    65    36    38 ar  
    66    36    64 1   
@<TRIPOS>SUBSTRUCTURE
     1 LJZ         1 TEMP              0 ****  ****    0 ROOT
