@<TRIPOS>MOLECULE
LK1
   49    50     1     0     0
SMALL
bcc


@<TRIPOS>ATOM
      1 O28          0.0000     0.0000     0.0000 o          1 LK1      -0.593300
      2 S11          1.4500     0.0000     0.0000 sy         1 LK1       0.935200
      3 O27          2.1810     0.0000     1.2530 o          1 LK1      -0.593300
      4 N            2.0080     1.2820    -0.9830 n7         1 LK1      -0.483100
      5 CA           3.3390     1.8490    -0.7760 c3         1 LK1       0.099500
      6 C            3.2350     2.9170     0.2970 c          1 LK1       0.977600
      7 OXT          4.4500     3.4330     0.6210 o          1 LK1      -0.911800
      8 O            2.1970     3.2930     0.8280 o          1 LK1      -0.911800
      9 CB           3.9470     2.3940    -2.0800 c3         1 LK1      -0.002400
     10 CG           3.9960     1.4210    -3.2610 c3         1 LK1      -0.134400
     11 CD           4.8790     0.2210    -3.0290 c          1 LK1       0.982600
     12 OE2          4.5060    -0.8550    -3.7650 o          1 LK1      -0.917800
     13 OE1          5.8270     0.2100    -2.2530 o          1 LK1      -0.917800
     14 C12          1.9960    -1.4120    -0.9140 ca         1 LK1      -0.152500
     15 C17          1.1610    -1.9610    -1.8680 ca         1 LK1       0.008000
     16 C16          1.5890    -3.0740    -2.5910 ca         1 LK1      -0.149000
     17 C15          2.8540    -3.6370    -2.3560 ca         1 LK1       0.062000
     18 C21          3.3020    -4.7580    -3.0740 ca         1 LK1      -0.150000
     19 C20          4.5620    -5.3030    -2.8280 ca         1 LK1       0.133100
     20 C19          5.3910    -4.7380    -1.8630 ca         1 LK1      -0.221000
     21 C18          4.9620    -3.6240    -1.1410 ca         1 LK1       0.020000
     22 C14          3.6960    -3.0620    -1.3750 ca         1 LK1      -0.062000
     23 C13          3.2490    -1.9410    -0.6580 ca         1 LK1       0.099000
     24 O22          4.9820    -6.3900    -3.5330 os         1 LK1      -0.320900
     25 C23          5.8830    -7.2800    -2.8770 c3         1 LK1       0.208400
     26 C24          5.6800    -8.6830    -3.4330 c3         1 LK1      -0.044400
     27 C25          6.6040    -9.6940    -2.7610 c3         1 LK1      -0.023400
     28 C26          6.3670   -11.1010    -3.2890 c3         1 LK1       0.009900
     29 H            1.4150     1.6540    -1.6980 hn         1 LK1       0.318800
     30 HA           3.9870     1.0620    -0.4070 h1         1 LK1       0.053700
     31 HBC1         3.3710     3.2600    -2.3820 hc         1 LK1       0.010700
     32 HBC2         4.9590     2.7170    -1.8690 hc         1 LK1       0.010700
     33 HGC1         2.9900     1.0740    -3.4640 hc         1 LK1      -0.004300
     34 HGC2         4.3600     1.9540    -4.1310 hc         1 LK1      -0.004300
     35 H17          0.1330    -1.6270    -1.9460 ha         1 LK1       0.105000
     36 H13          3.8530    -1.5360     0.1460 ha         1 LK1       0.130000
     37 H16          0.9390    -3.5100    -3.3400 ha         1 LK1       0.087000
     38 H21          2.6630    -5.2030    -3.8270 ha         1 LK1       0.099000
     39 H19          6.3690    -5.1630    -1.6730 ha         1 LK1       0.100000
     40 H18          5.6110    -3.1890    -0.3910 ha         1 LK1       0.105000
     41 H231         6.9030    -6.9630    -3.0570 h1         1 LK1      -0.000300
     42 H232         5.6850    -7.2790    -1.8120 h1         1 LK1      -0.000300
     43 H241         5.8800    -8.6740    -4.4980 hc         1 LK1       0.018700
     44 H242         4.6510    -8.9820    -3.2700 hc         1 LK1       0.018700
     45 H251         7.6330    -9.4140    -2.9510 hc         1 LK1       0.009200
     46 H252         6.4250    -9.6820    -1.6930 hc         1 LK1       0.009200
     47 H261         7.0450   -11.7890    -2.7990 hc         1 LK1      -0.003967
     48 H262         6.5430   -11.1200    -4.3570 hc         1 LK1      -0.003967
     49 H263         5.3450   -11.3950    -3.0860 hc         1 LK1      -0.003967
@<TRIPOS>BOND
     1     1     2 2   
     2     2     3 2   
     3     2     4 1   
     4     2    14 1   
     5     4     5 1   
     6     4    29 1   
     7     5     6 1   
     8     5     9 1   
     9     5    30 1   
    10     6     7 1   
    11     6     8 1   
    12     9    10 1   
    13     9    31 1   
    14     9    32 1   
    15    10    11 1   
    16    10    33 1   
    17    10    34 1   
    18    11    12 1   
    19    11    13 1   
    20    14    15 ar  
    21    14    23 ar  
    22    15    16 ar  
    23    15    35 1   
    24    16    17 ar  
    25    16    37 1   
    26    17    18 ar  
    27    17    22 ar  
    28    18    19 ar  
    29    18    38 1   
    30    19    20 ar  
    31    19    24 1   
    32    20    21 ar  
    33    20    39 1   
    34    21    22 ar  
    35    21    40 1   
    36    22    23 ar  
    37    23    36 1   
    38    24    25 1   
    39    25    26 1   
    40    25    41 1   
    41    25    42 1   
    42    26    27 1   
    43    26    43 1   
    44    26    44 1   
    45    27    28 1   
    46    27    45 1   
    47    27    46 1   
    48    28    47 1   
    49    28    48 1   
    50    28    49 1   
@<TRIPOS>SUBSTRUCTURE
     1 LK1         1 TEMP              0 ****  ****    0 ROOT
