@<TRIPOS>MOLECULE
LK2
   49    50     1     0     0
SMALL
bcc


@<TRIPOS>ATOM
      1 O32          0.0000     0.0000     0.0000 o          1 LK2      -0.589300
      2 S11          1.4510     0.0000     0.0000 sy         1 LK2       0.910200
      3 O33          2.1800     0.0000     1.2540 o          1 LK2      -0.589300
      4 N            2.0080     1.2830    -0.9810 n7         1 LK2      -0.485100
      5 CA           3.3390     1.8500    -0.7740 c3         1 LK2       0.102500
      6 C            3.8910     2.2660    -2.1250 c          1 LK2       0.982600
      7 O            3.2830     2.2140    -3.1870 o          1 LK2      -0.903800
      8 OXT          5.1710     2.7150    -2.0350 o          1 LK2      -0.903800
      9 CB           3.3220     3.0140     0.2310 c3         1 LK2      -0.026400
     10 CG           2.4010     4.1880    -0.1110 c3         1 LK2      -0.128400
     11 CD           2.3500     5.2570     0.9530 c          1 LK2       0.998600
     12 OE2          1.4640     6.2410     0.6640 o          1 LK2      -0.930800
     13 OE1          3.0400     5.2460     1.9630 o          1 LK2      -0.930800
     14 C12          1.9960    -1.4110    -0.9130 ca         1 LK2      -0.133500
     15 C13          1.1630    -1.9610    -1.8680 ca         1 LK2       0.022000
     16 C14          1.5920    -3.0740    -2.5900 ca         1 LK2      -0.157000
     17 C15          2.8580    -3.6370    -2.3550 ca         1 LK2       0.033000
     18 C16          3.6990    -3.0610    -1.3720 ca         1 LK2      -0.097000
     19 C17          3.2500    -1.9400    -0.6560 ca         1 LK2       0.059000
     20 C21          3.3060    -4.7570    -3.0720 ca         1 LK2      -0.151000
     21 C20          4.5660    -5.3030    -2.8250 ca         1 LK2       0.136100
     22 C19          5.3940    -4.7370    -1.8590 ca         1 LK2      -0.214000
     23 C18          4.9640    -3.6230    -1.1370 ca         1 LK2      -0.013000
     24 O22          4.9870    -6.3890    -3.5300 os         1 LK2      -0.318900
     25 C23          5.8880    -7.2800    -2.8740 c3         1 LK2       0.208400
     26 C24          5.6840    -8.6820    -3.4300 c3         1 LK2      -0.043400
     27 C29          6.6090    -9.6940    -2.7570 c3         1 LK2      -0.022400
     28 C44          6.3730   -11.0990    -3.2840 c3         1 LK2       0.009900
     29 H            1.4200     1.6480    -1.7030 hn         1 LK2       0.360800
     30 HA           3.9780     1.0720    -0.3740 h1         1 LK2       0.009700
     31 HBC1         4.3320     3.3950     0.3210 hc         1 LK2       0.024700
     32 HBC2         3.0220     2.6220     1.1950 hc         1 LK2       0.024700
     33 HGC1         1.3990     3.8070    -0.2650 hc         1 LK2       0.012200
     34 HGC2         2.7450     4.6380    -1.0350 hc         1 LK2       0.012200
     35 H13          0.1360    -1.6260    -1.9480 ha         1 LK2       0.121000
     36 H17          3.8620    -1.5230     0.1350 ha         1 LK2       0.133000
     37 H14          0.9420    -3.5090    -3.3400 ha         1 LK2       0.098000
     38 H21          2.6670    -5.2020    -3.8250 ha         1 LK2       0.109000
     39 H18          5.6130    -3.1870    -0.3870 ha         1 LK2       0.106000
     40 H19          6.3720    -5.1610    -1.6680 ha         1 LK2       0.108000
     41 H231         6.9080    -6.9620    -3.0530 h1         1 LK2       0.001200
     42 H232         5.6880    -7.2780    -1.8090 h1         1 LK2       0.001200
     43 H241         5.8860    -8.6720    -4.4940 hc         1 LK2       0.020700
     44 H242         4.6560    -8.9810    -3.2670 hc         1 LK2       0.020700
     45 H291         7.6380    -9.4130    -2.9470 hc         1 LK2       0.009700
     46 H292         6.4300    -9.6810    -1.6890 hc         1 LK2       0.009700
     47 H441         6.5490   -11.1190    -4.3530 hc         1 LK2      -0.001633
     48 H442         5.3500   -11.3940    -3.0810 hc         1 LK2      -0.001633
     49 H443         7.0510   -11.7870    -2.7940 hc         1 LK2      -0.001633
@<TRIPOS>BOND
     1     1     2 2   
     2     2     3 2   
     3     2     4 1   
     4     2    14 1   
     5     4     5 1   
     6     4    29 1   
     7     5     6 1   
     8     5     9 1   
     9     5    30 1   
    10     6     7 1   
    11     6     8 1   
    12     9    10 1   
    13     9    31 1   
    14     9    32 1   
    15    10    11 1   
    16    10    33 1   
    17    10    34 1   
    18    11    12 1   
    19    11    13 1   
    20    14    15 ar  
    21    14    19 ar  
    22    15    16 ar  
    23    15    35 1   
    24    16    17 ar  
    25    16    37 1   
    26    17    18 ar  
    27    17    20 ar  
    28    18    19 ar  
    29    18    23 ar  
    30    19    36 1   
    31    20    21 ar  
    32    20    38 1   
    33    21    22 ar  
    34    21    24 1   
    35    22    23 ar  
    36    22    40 1   
    37    23    39 1   
    38    24    25 1   
    39    25    26 1   
    40    25    41 1   
    41    25    42 1   
    42    26    27 1   
    43    26    43 1   
    44    26    44 1   
    45    27    28 1   
    46    27    45 1   
    47    27    46 1   
    48    28    47 1   
    49    28    48 1   
    50    28    49 1   
@<TRIPOS>SUBSTRUCTURE
     1 LK2         1 TEMP              0 ****  ****    0 ROOT
