@<TRIPOS>MOLECULE
molecule
   52    53     1     0     0
SMALL
bcc


@<TRIPOS>ATOM
      1 O28          0.0000     0.0000     0.0000 o          1 LK3      -0.634800
      2 S11          1.4510     0.0000     0.0000 sy         1 LK3       1.287200
      3 O27          2.1800     0.0000     1.2540 o          1 LK3      -0.634800
      4 N            2.0080     1.2830    -0.9810 n7         1 LK3      -0.834100
      5 CA           3.3390     1.8500    -0.7740 c3         1 LK3       0.148500
      6 C            3.8910     2.2660    -2.1250 c          1 LK3       0.895600
      7 OXT          5.1710     2.7150    -2.0350 o          1 LK3      -0.851800
      8 O            3.2830     2.2140    -3.1870 o          1 LK3      -0.851800
      9 CB           3.3220     3.0140     0.2310 c3         1 LK3      -0.068400
     10 CG           2.4010     4.1880    -0.1110 c3         1 LK3      -0.167400
     11 CD           2.3500     5.2570     0.9530 c          1 LK3       0.900600
     12 OE2          3.0400     5.2460     1.9630 o          1 LK3      -0.880300
     13 OE1          1.4640     6.2410     0.6640 o          1 LK3      -0.880300
     14 C12          1.9960    -1.4110    -0.9130 ca         1 LK3      -0.269500
     15 C17          1.1630    -1.9610    -1.8680 ca         1 LK3      -0.018000
     16 C16          1.5920    -3.0740    -2.5900 ca         1 LK3      -0.167000
     17 C15          2.8580    -3.6370    -2.3550 ca         1 LK3       0.029000
     18 C21          3.3060    -4.7570    -3.0720 ca         1 LK3      -0.166000
     19 C20          4.5660    -5.3030    -2.8250 ca         1 LK3       0.128100
     20 C19          5.3940    -4.7370    -1.8590 ca         1 LK3      -0.223000
     21 C18          4.9640    -3.6230    -1.1370 ca         1 LK3      -0.056000
     22 C14          3.6990    -3.0610    -1.3720 ca         1 LK3      -0.081000
     23 C13          3.2500    -1.9400    -0.6560 ca         1 LK3       0.017000
     24 O22          4.9870    -6.3890    -3.5300 os         1 LK3      -0.346900
     25 C23          6.3910    -6.5130    -3.7540 c3         1 LK3       0.144400
     26 C24          6.6160    -7.2630    -5.0580 c3         1 LK3      -0.088400
     27 C25          8.1040    -7.4200    -5.3680 c3         1 LK3      -0.078400
     28 C26          8.3210    -8.1370    -6.7010 c3         1 LK3      -0.081400
     29 C30          9.8000    -8.2650    -7.0300 c3         1 LK3      -0.090100
     30 H            1.4200     1.6490    -1.7030 hn         1 LK3       0.464800
     31 HA           3.9780     1.0720    -0.3740 h1         1 LK3       0.030700
     32 HBC1         3.0220     2.6220     1.1950 hc         1 LK3       0.047700
     33 HBC2         4.3320     3.3950     0.3210 hc         1 LK3       0.047700
     34 HGC1         2.7450     4.6380    -1.0350 hc         1 LK3       0.035200
     35 HGC2         1.3990     3.8070    -0.2650 hc         1 LK3       0.035200
     36 H17          0.1860    -1.5310    -2.0530 ha         1 LK3       0.150000
     37 H13          3.8840    -1.4900     0.0990 ha         1 LK3       0.163000
     38 H16          0.9420    -3.5090    -3.3400 ha         1 LK3       0.121000
     39 H21          2.6670    -5.2020    -3.8250 ha         1 LK3       0.134000
     40 H19          6.3720    -5.1620    -1.6680 ha         1 LK3       0.124000
     41 H18          5.6130    -3.1870    -0.3870 ha         1 LK3       0.138000
     42 H231         6.8370    -5.5280    -3.8190 h1         1 LK3       0.036700
     43 H232         6.8410    -7.0620    -2.9360 h1         1 LK3       0.036700
     44 H241         6.1660    -8.2450    -4.9840 hc         1 LK3       0.050700
     45 H242         6.1430    -6.7170    -5.8660 hc         1 LK3       0.050700
     46 H251         8.5610    -6.4390    -5.4150 hc         1 LK3       0.040700
     47 H252         8.5720    -7.9920    -4.5770 hc         1 LK3       0.040700
     48 H261         7.8850    -9.1270    -6.6450 hc         1 LK3       0.038700
     49 H262         7.8310    -7.5780    -7.4880 hc         1 LK3       0.038700
     50 H301        10.2970    -8.8250    -6.2470 hc         1 LK3       0.031033
     51 H302        10.2400    -7.2780    -7.1030 hc         1 LK3       0.031033
     52 H303         9.9160    -8.7830    -7.9740 hc         1 LK3       0.031033
@<TRIPOS>BOND
     1     3     2 2
     2     2     4 1
     3     4     5 1
     4     5     6 1
     5     6     7 1
     6     6     8 1
     7     5     9 1
     8     9    10 1
     9    10    11 1
    10    11    12 1
    11    11    13 1
    12     2    14 1
    13    14    15 ar
    14    15    16 ar
    15    16    17 ar
    16    17    18 ar
    17    18    19 ar
    18    19    20 ar
    19    20    21 ar
    20    17    22 ar
    21    21    22 ar
    22    14    23 ar
    23    22    23 ar
    24    19    24 1
    25    24    25 1
    26     2     1 2
    27    25    26 1
    28    26    27 1
    29    27    28 1
    30    28    29 1
    31     4    30 1
    32     9    32 1
    33     9    33 1
    34    10    34 1
    35    10    35 1
    36    15    36 1
    37    23    37 1
    38    16    38 1
    39    18    39 1
    40    20    40 1
    41    21    41 1
    42    25    42 1
    43    25    43 1
    44    26    44 1
    45    26    45 1
    46    27    46 1
    47    27    47 1
    48    28    48 1
    49    28    49 1
    50    29    50 1
    51    29    51 1
    52    29    52 1
    53     5    31 1
@<TRIPOS>SUBSTRUCTURE
     1 LK3         1 TEMP              0 ****  ****    0 ROOT
