@<TRIPOS>MOLECULE
LK3
   52    53     1     0     0
SMALL
bcc


@<TRIPOS>ATOM
      1 O28          0.0000     0.0000     0.0000 o          1 LK3      -0.588300
      2 S11          1.4510     0.0000     0.0000 sy         1 LK3       0.911200
      3 O27          2.1800     0.0000     1.2540 o          1 LK3      -0.588300
      4 N            2.0080     1.2830    -0.9810 n7         1 LK3      -0.487100
      5 CA           3.3390     1.8500    -0.7740 c3         1 LK3       0.102500
      6 C            3.8910     2.2660    -2.1250 c          1 LK3       0.982600
      7 OXT          5.1710     2.7150    -2.0350 o          1 LK3      -0.904300
      8 O            3.2830     2.2140    -3.1870 o          1 LK3      -0.904300
      9 CB           3.3220     3.0140     0.2310 c3         1 LK3      -0.026400
     10 CG           2.4010     4.1880    -0.1110 c3         1 LK3      -0.128400
     11 CD           2.3500     5.2570     0.9530 c          1 LK3       0.998600
     12 OE2          3.0400     5.2460     1.9630 o          1 LK3      -0.930800
     13 OE1          1.4640     6.2410     0.6640 o          1 LK3      -0.930800
     14 C12          1.9960    -1.4110    -0.9130 ca         1 LK3      -0.133500
     15 C17          1.1630    -1.9610    -1.8680 ca         1 LK3       0.022000
     16 C16          1.5920    -3.0740    -2.5900 ca         1 LK3      -0.157000
     17 C15          2.8580    -3.6370    -2.3550 ca         1 LK3       0.034000
     18 C21          3.3060    -4.7570    -3.0720 ca         1 LK3      -0.151000
     19 C20          4.5660    -5.3030    -2.8250 ca         1 LK3       0.136100
     20 C19          5.3940    -4.7370    -1.8590 ca         1 LK3      -0.215000
     21 C18          4.9640    -3.6230    -1.1370 ca         1 LK3      -0.013000
     22 C14          3.6990    -3.0610    -1.3720 ca         1 LK3      -0.097000
     23 C13          3.2500    -1.9400    -0.6560 ca         1 LK3       0.058000
     24 O22          4.9870    -6.3890    -3.5300 os         1 LK3      -0.322900
     25 C23          6.3910    -6.5130    -3.7540 c3         1 LK3       0.208400
     26 C24          6.6160    -7.2630    -5.0580 c3         1 LK3      -0.042400
     27 C25          8.1040    -7.4200    -5.3680 c3         1 LK3      -0.021400
     28 C26          8.3210    -8.1370    -6.7010 c3         1 LK3      -0.026400
     29 C30          9.8000    -8.2650    -7.0300 c3         1 LK3       0.007900
     30 H            1.4200     1.6490    -1.7030 hn         1 LK3       0.360800
     31 HA           3.9780     1.0720    -0.3740 h1         1 LK3       0.009700
     32 HBC1         3.0220     2.6220     1.1950 hc         1 LK3       0.025200
     33 HBC2         4.3320     3.3950     0.3210 hc         1 LK3       0.025200
     34 HGC1         2.7450     4.6380    -1.0350 hc         1 LK3       0.012200
     35 HGC2         1.3990     3.8070    -0.2650 hc         1 LK3       0.012200
     36 H17          0.1860    -1.5310    -2.0530 ha         1 LK3       0.121000
     37 H13          3.8840    -1.4900     0.0990 ha         1 LK3       0.133000
     38 H16          0.9420    -3.5090    -3.3400 ha         1 LK3       0.098000
     39 H21          2.6670    -5.2020    -3.8250 ha         1 LK3       0.109000
     40 H19          6.3720    -5.1620    -1.6680 ha         1 LK3       0.108000
     41 H18          5.6130    -3.1870    -0.3870 ha         1 LK3       0.106000
     42 H231         6.8370    -5.5280    -3.8190 h1         1 LK3       0.002700
     43 H232         6.8410    -7.0620    -2.9360 h1         1 LK3       0.002700
     44 H241         6.1660    -8.2450    -4.9840 hc         1 LK3       0.020700
     45 H242         6.1430    -6.7170    -5.8660 hc         1 LK3       0.020700
     46 H251         8.5610    -6.4390    -5.4150 hc         1 LK3       0.013200
     47 H252         8.5720    -7.9920    -4.5770 hc         1 LK3       0.013200
     48 H261         7.8850    -9.1270    -6.6450 hc         1 LK3       0.010200
     49 H262         7.8310    -7.5780    -7.4880 hc         1 LK3       0.010200
     50 H301        10.2970    -8.8250    -6.2470 hc         1 LK3      -0.001633
     51 H302        10.2400    -7.2780    -7.1030 hc         1 LK3      -0.001633
     52 H303         9.9160    -8.7830    -7.9740 hc         1 LK3      -0.001633
@<TRIPOS>BOND
     1     1     2 2   
     2     2     3 2   
     3     2     4 1   
     4     2    14 1   
     5     4     5 1   
     6     4    30 1   
     7     5     6 1   
     8     5     9 1   
     9     5    31 1   
    10     6     7 1   
    11     6     8 1   
    12     9    10 1   
    13     9    32 1   
    14     9    33 1   
    15    10    11 1   
    16    10    34 1   
    17    10    35 1   
    18    11    12 1   
    19    11    13 1   
    20    14    15 ar  
    21    14    23 ar  
    22    15    16 ar  
    23    15    36 1   
    24    16    17 ar  
    25    16    38 1   
    26    17    18 ar  
    27    17    22 ar  
    28    18    19 ar  
    29    18    39 1   
    30    19    20 ar  
    31    19    24 1   
    32    20    21 ar  
    33    20    40 1   
    34    21    22 ar  
    35    21    41 1   
    36    22    23 ar  
    37    23    37 1   
    38    24    25 1   
    39    25    26 1   
    40    25    42 1   
    41    25    43 1   
    42    26    27 1   
    43    26    44 1   
    44    26    45 1   
    45    27    28 1   
    46    27    46 1   
    47    27    47 1   
    48    28    29 1   
    49    28    48 1   
    50    28    49 1   
    51    29    50 1   
    52    29    51 1   
    53    29    52 1   
@<TRIPOS>SUBSTRUCTURE
     1 LK3         1 TEMP              0 ****  ****    0 ROOT
