@<TRIPOS>MOLECULE
LK4
   51    53     1     0     0
SMALL
bcc


@<TRIPOS>ATOM
      1 N31         -1.2850    -0.0160    -2.2500 n1         1 LK4      -0.412800
      2 C30         -0.7140     0.0010    -1.2380 cg         1 LK4       0.249800
      3 C27          0.0000     0.0000     0.0000 ca         1 LK4       0.017000
      4 C28          1.3950     0.0000     0.0000 ca         1 LK4      -0.078000
      5 C29          2.0920     0.0000     1.2080 ca         1 LK4      -0.075000
      6 C26         -0.6980    -0.0000     1.2070 ca         1 LK4      -0.078000
      7 C25         -0.0000    -0.0010     2.4150 ca         1 LK4      -0.075000
      8 C24          1.3900    -0.0010     2.4080 ca         1 LK4      -0.076300
      9 C23          2.1390    -0.0020     3.7080 c3         1 LK4       0.253700
     10 O22          2.3710     1.3470     4.1130 os         1 LK4      -0.308900
     11 C20          3.0690     1.5360     5.2660 ca         1 LK4       0.136100
     12 C19          3.5190     0.4380     5.9950 ca         1 LK4      -0.235000
     13 C18          4.2350     0.6310     7.1770 ca         1 LK4      -0.003000
     14 C21          3.3320     2.8290     5.7180 ca         1 LK4      -0.154000
     15 C15          4.0500     3.0410     6.9050 ca         1 LK4       0.039000
     16 C16          4.5090     1.9260     7.6460 ca         1 LK4      -0.101000
     17 C17          5.2270     2.1380     8.8330 ca         1 LK4       0.061000
     18 C14          4.3240     4.3370     7.3750 ca         1 LK4      -0.159000
     19 C13          5.0390     4.5280     8.5570 ca         1 LK4       0.025000
     20 C12          5.4800     3.4290     9.2670 ca         1 LK4      -0.134500
     21 S11          6.3860     3.6750    10.7640 sy         1 LK4       0.910200
     22 O33          6.0260     4.9750    11.2980 o          1 LK4      -0.588300
     23 O32          6.2060     2.4810    11.5680 o          1 LK4      -0.588300
     24 N            7.9940     3.7340    10.1880 n7         1 LK4      -0.485100
     25 CA           8.7890     2.5120    10.0830 c3         1 LK4       0.102500
     26 C            9.7000     2.6450     8.8760 c          1 LK4       0.981600
     27 O            9.8070     3.6410     8.1730 o          1 LK4      -0.903800
     28 OXT         10.4070     1.5060     8.6450 o          1 LK4      -0.903800
     29 CB           9.5720     2.2190    11.3730 c3         1 LK4      -0.027400
     30 CG          10.5280     3.3170    11.8480 c3         1 LK4      -0.127400
     31 CD          11.1970     3.0180    13.1660 c          1 LK4       0.998600
     32 OE1         11.0680     1.9630    13.7730 o          1 LK4      -0.930300
     33 OE2         11.9710     4.0410    13.6050 o          1 LK4      -0.930300
     34 H28          1.9360     0.0000    -0.9380 ha         1 LK4       0.110000
     35 H26         -1.7810     0.0010     1.2070 ha         1 LK4       0.110000
     36 H29          3.1760     0.0010     1.2120 ha         1 LK4       0.118500
     37 H25         -0.5400    -0.0030     3.3550 ha         1 LK4       0.118500
     38 H231         1.5530    -0.5110     4.4640 h1         1 LK4       0.008700
     39 H232         3.0870    -0.5110     3.5810 h1         1 LK4       0.008700
     40 H19          3.3140    -0.5660     5.6430 ha         1 LK4       0.109000
     41 H21          2.9790     3.6790     5.1460 ha         1 LK4       0.110000
     42 H18          4.5830    -0.2270     7.7380 ha         1 LK4       0.107000
     43 H14          3.9760     5.1960     6.8140 ha         1 LK4       0.099000
     44 H17          5.5370     1.2940     9.4370 ha         1 LK4       0.133000
     45 H13          5.1170     5.5190     8.9880 ha         1 LK4       0.122000
     46 H            8.3940     4.6120     9.9200 hn         1 LK4       0.360800
     47 HA           8.1130     1.6850     9.9050 h1         1 LK4       0.009700
     48 HBC1        10.1500     1.3150    11.2180 hc         1 LK4       0.025200
     49 HBC2         8.8570     2.0310    12.1650 hc         1 LK4       0.025200
     50 HGC1        11.2950     3.4540    11.0950 hc         1 LK4       0.012700
     51 HGC2         9.9700     4.2400    11.9460 hc         1 LK4       0.012700
@<TRIPOS>BOND
     1     1     2 3   
     2     2     3 1   
     3     3     4 ar  
     4     3     6 ar  
     5     4     5 ar  
     6     4    34 1   
     7     5     8 ar  
     8     5    36 1   
     9     6     7 ar  
    10     6    35 1   
    11     7     8 ar  
    12     7    37 1   
    13     8     9 1   
    14     9    10 1   
    15     9    38 1   
    16     9    39 1   
    17    10    11 1   
    18    11    12 ar  
    19    11    14 ar  
    20    12    13 ar  
    21    12    40 1   
    22    13    16 ar  
    23    13    42 1   
    24    14    15 ar  
    25    14    41 1   
    26    15    16 ar  
    27    15    18 ar  
    28    16    17 ar  
    29    17    20 ar  
    30    17    44 1   
    31    18    19 ar  
    32    18    43 1   
    33    19    20 ar  
    34    19    45 1   
    35    20    21 1   
    36    21    22 2   
    37    21    23 2   
    38    21    24 1   
    39    24    25 1   
    40    24    46 1   
    41    25    26 1   
    42    25    29 1   
    43    25    47 1   
    44    26    27 1   
    45    26    28 1   
    46    29    30 1   
    47    29    48 1   
    48    29    49 1   
    49    30    31 1   
    50    30    50 1   
    51    30    51 1   
    52    31    32 1   
    53    31    33 1   
@<TRIPOS>SUBSTRUCTURE
     1 LK4         1 TEMP              0 ****  ****    0 ROOT
