@<TRIPOS>MOLECULE
molecule
   51    53     1     0     0
SMALL
bcc


@<TRIPOS>ATOM
      1 N31         -1.2850    -0.0160    -2.2500 n1         1 LK4      -0.383800
      2 C30         -0.7140     0.0010    -1.2380 cg         1 LK4       0.243800
      3 C27          0.0000     0.0000     0.0000 ca         1 LK4      -0.021000
      4 C28          1.3950     0.0000     0.0000 ca         1 LK4      -0.097500
      5 C29          2.0920     0.0000     1.2080 ca         1 LK4      -0.108000
      6 C26         -0.6980    -0.0000     1.2070 ca         1 LK4      -0.097500
      7 C25         -0.0000    -0.0010     2.4150 ca         1 LK4      -0.108000
      8 C24          1.3900    -0.0010     2.4080 ca         1 LK4      -0.060300
      9 C23          2.1390    -0.0020     3.7080 c3         1 LK4       0.182700
     10 O22          2.3710     1.3470     4.1130 os         1 LK4      -0.332900
     11 C20          3.0690     1.5360     5.2660 ca         1 LK4       0.129100
     12 C19          3.5190     0.4380     5.9950 ca         1 LK4      -0.239000
     13 C18          4.2350     0.6310     7.1770 ca         1 LK4      -0.046000
     14 C21          3.3320     2.8290     5.7180 ca         1 LK4      -0.169000
     15 C15          4.0500     3.0410     6.9050 ca         1 LK4       0.034000
     16 C16          4.5090     1.9260     7.6460 ca         1 LK4      -0.085000
     17 C17          5.2270     2.1380     8.8330 ca         1 LK4       0.019000
     18 C14          4.3240     4.3370     7.3750 ca         1 LK4      -0.168000
     19 C13          5.0390     4.5280     8.5570 ca         1 LK4      -0.015000
     20 C12          5.4800     3.4290     9.2670 ca         1 LK4      -0.270500
     21 S11          6.3860     3.6750    10.7640 sy         1 LK4       1.286200
     22 O33          6.0260     4.9750    11.2980 o          1 LK4      -0.634300
     23 O32          6.2060     2.4810    11.5680 o          1 LK4      -0.634300
     24 N            7.9940     3.7340    10.1880 n7         1 LK4      -0.832100
     25 CA           8.7890     2.5120    10.0830 c3         1 LK4       0.148500
     26 C            9.7000     2.6450     8.8760 c          1 LK4       0.895600
     27 O            9.8070     3.6410     8.1730 o          1 LK4      -0.851300
     28 OXT         10.4070     1.5060     8.6450 o          1 LK4      -0.851300
     29 CB           9.5720     2.2190    11.3730 c3         1 LK4      -0.069400
     30 CG          10.5280     3.3170    11.8480 c3         1 LK4      -0.167400
     31 CD          11.1970     3.0180    13.1660 c          1 LK4       0.900600
     32 OE1         11.0680     1.9630    13.7730 o          1 LK4      -0.879800
     33 OE2         11.9710     4.0410    13.6050 o          1 LK4      -0.879800
     34 H28          1.9360     0.0000    -0.9380 ha         1 LK4       0.139500
     35 H26         -1.7810     0.0010     1.2070 ha         1 LK4       0.139500
     36 H29          3.1760     0.0010     1.2120 ha         1 LK4       0.148500
     37 H25         -0.5400    -0.0030     3.3550 ha         1 LK4       0.148500
     38 H231         1.5530    -0.5110     4.4640 h1         1 LK4       0.044700
     39 H232         3.0870    -0.5110     3.5810 h1         1 LK4       0.044700
     40 H19          3.3140    -0.5660     5.6430 ha         1 LK4       0.123000
     41 H21          2.9790     3.6790     5.1460 ha         1 LK4       0.136000
     42 H18          4.5830    -0.2270     7.7380 ha         1 LK4       0.139000
     43 H14          3.9760     5.1960     6.8140 ha         1 LK4       0.122000
     44 H17          5.5370     1.2940     9.4370 ha         1 LK4       0.163000
     45 H13          5.1170     5.5190     8.9880 ha         1 LK4       0.151000
     46 H            8.3940     4.6120     9.9200 hn         1 LK4       0.465800
     47 HA           8.1130     1.6850     9.9050 h1         1 LK4       0.030700
     48 HBC1        10.1500     1.3150    11.2180 hc         1 LK4       0.047700
     49 HBC2         8.8570     2.0310    12.1650 hc         1 LK4       0.047700
     50 HGC1        11.2950     3.4540    11.0950 hc         1 LK4       0.035700
     51 HGC2         9.9700     4.2400    11.9460 hc         1 LK4       0.035700
@<TRIPOS>BOND
     1     1     2 3
     2     2     3 1
     3     3     4 ar
     4     4     5 ar
     5     3     6 ar
     6     6     7 ar
     7     5     8 ar
     8     7     8 ar
     9     8     9 1
    10     9    10 1
    11    10    11 1
    12    11    12 ar
    13    12    13 ar
    14    11    14 ar
    15    14    15 ar
    16    13    16 ar
    17    15    16 ar
    18    16    17 ar
    19    15    18 ar
    20    18    19 ar
    21    17    20 ar
    22    19    20 ar
    23    20    21 1
    24    21    22 2
    25    21    23 2
    26    21    24 1
    27    24    25 1
    28    25    26 1
    29    26    27 1
    30    26    28 1
    31    25    29 1
    32    29    30 1
    33    30    31 1
    34    31    32 1
    35    31    33 1
    36     4    34 1
    37     6    35 1
    38     5    36 1
    39     7    37 1
    40     9    38 1
    41     9    39 1
    42    12    40 1
    43    14    41 1
    44    13    42 1
    45    18    43 1
    46    17    44 1
    47    19    45 1
    48    24    46 1
    49    25    47 1
    50    29    48 1
    51    29    49 1
    52    30    50 1
    53    30    51 1
@<TRIPOS>SUBSTRUCTURE
     1 LK4         1 TEMP              0 ****  ****    0 ROOT
