@<TRIPOS>MOLECULE
molecule
   48    49     1     0     0
SMALL
bcc


@<TRIPOS>ATOM
      1 C1           0.0000     0.0000     0.0000 c3         1 LK5      -0.090100
      2 C3           1.5300     0.0000     0.0000 c3         1 LK5      -0.084400
      3 C4           2.0410     0.0000     1.4420 c3         1 LK5      -0.081400
      4 C5           3.5710    -0.0000     1.4410 c3         1 LK5       0.140400
      5 O4           4.0480     0.0000     2.7880 os         1 LK5      -0.430600
      6 C6           5.4720     0.0010     2.9010 c3         1 LK5       0.225300
      7 C7           5.9970    -1.4440     2.9430 c3         1 LK5      -0.098400
      8 C8           5.5670    -2.1260     4.2390 c3         1 LK5      -0.067400
      9 C9           6.1760    -1.4320     5.4620 c3         1 LK5      -0.082400
     10 C10          5.6070    -0.0130     5.5450 c3         1 LK5      -0.033500
     11 C11          5.8900     0.6470     4.2020 c2         1 LK5      -0.273400
     12 C12          6.5300     1.7800     4.4090 ce         1 LK5       0.133800
     13 C13          6.8880     2.7180     3.3300 c          1 LK5       0.891800
     14 O3           6.5920     2.4630     2.1790 o          1 LK5      -0.833300
     15 O2           7.5430     3.8600     3.6190 o          1 LK5      -0.833300
     16 N1           6.8330     2.0030     5.7520 nu         1 LK5      -0.817000
     17 C14          6.3690     0.8550     6.5510 c3         1 LK5       0.242500
     18 C15          7.5580     0.0880     7.1290 c3         1 LK5      -0.205700
     19 C16          8.3980     1.0270     7.9970 c3         1 LK5      -0.074400
     20 C2           9.6540     0.2950     8.4750 c3         1 LK5      -0.096100
     21 C17          7.0560    -1.0570     7.9700 c          1 LK5       0.589900
     22 O1           7.4520    -2.1800     7.7620 o          1 LK5      -0.546100
     23 H11         -0.3610     0.8840     0.5120 hc         1 LK5       0.027033
     24 H12         -0.3610    -0.8850     0.5100 hc         1 LK5       0.027033
     25 H13         -0.3610     0.0010    -1.0210 hc         1 LK5       0.027033
     26 H31          1.8910     0.8840    -0.5110 hc         1 LK5       0.038700
     27 H32          1.8910    -0.8840    -0.5110 hc         1 LK5       0.038700
     28 H41          1.6800     0.8850     1.9530 hc         1 LK5       0.046700
     29 H42          1.6800    -0.8850     1.9530 hc         1 LK5       0.046700
     30 H51          3.9320     0.8840     0.9300 h1         1 LK5       0.023700
     31 H52          3.9320    -0.8850     0.9300 h1         1 LK5       0.023700
     32 H6           5.9160     0.5310     2.0660 h1         1 LK5       0.103700
     33 H71          5.5960    -1.9950     2.1000 hc         1 LK5       0.032700
     34 H72          7.0790    -1.4330     2.8880 hc         1 LK5       0.032700
     35 H81          4.4860    -2.0900     4.3150 hc         1 LK5       0.029200
     36 H82          5.8920    -3.1590     4.2200 hc         1 LK5       0.029200
     37 H91          5.9150    -1.9810     6.3590 hc         1 LK5       0.040200
     38 H92          7.2530    -1.3860     5.3550 hc         1 LK5       0.040200
     39 H10          4.5450    -0.0260     5.7590 hc         1 LK5       0.056700
     40 HN1          7.2920     2.8140     6.1160 hn         1 LK5       0.460800
     41 H14          5.7050     1.1890     7.3390 h1         1 LK5       0.030700
     42 H15          8.1670    -0.2970     6.3210 hc         1 LK5       0.099700
     43 H161         8.6860     1.8950     7.4170 hc         1 LK5       0.047700
     44 H162         7.8170     1.3430     8.8550 hc         1 LK5       0.047700
     45 H21         10.3360     1.0050     8.9280 hc         1 LK5       0.031367
     46 H22          9.3780    -0.4570     9.2040 hc         1 LK5       0.031367
     47 H23         10.1370    -0.1820     7.6300 hc         1 LK5       0.031367
     48 H17          6.3680    -0.8690     8.7860 h4         1 LK5      -0.019800
@<TRIPOS>BOND
     1     1     2 1
     2     1    23 1
     3     1    24 1
     4     1    25 1
     5     2     3 1
     6     2    26 1
     7     2    27 1
     8     3     4 1
     9     3    28 1
    10     3    29 1
    11     4     5 1
    12     4    30 1
    13     4    31 1
    14     5     6 1
    15     6     7 1
    16     6    11 1
    17     6    32 1
    18     7     8 1
    19     7    33 1
    20     7    34 1
    21     8     9 1
    22     8    35 1
    23     8    36 1
    24     9    10 1
    25     9    37 1
    26     9    38 1
    27    10    17 1
    28    10    11 1
    29    10    39 1
    30    11    12 2
    31    12    16 1
    32    12    13 1
    33    13    14 1
    34    13    15 1
    35    16    17 1
    36    16    40 1
    37    17    18 1
    38    17    41 1
    39    18    21 1
    40    18    19 1
    41    18    42 1
    42    19    20 1
    43    19    43 1
    44    19    44 1
    45    20    45 1
    46    20    46 1
    47    20    47 1
    48    21    22 2
    49    21    48 1
@<TRIPOS>SUBSTRUCTURE
     1 LK5         1 TEMP              0 ****  ****    0 ROOT
