@<TRIPOS>MOLECULE
molecule
   37    38     1     0     0
SMALL
bcc


@<TRIPOS>ATOM
      1 C1           0.0000     0.0000     0.0000 c3         1 LK7      -0.058900
      2 C2           1.5080     0.0000     0.0000 c2         1 LK7      -0.161200
      3 C3           2.1750     0.0000     1.1560 ce         1 LK7      -0.199400
      4 C4           3.6370     0.0000     1.1550 c          1 LK7       0.550100
      5 O1           4.2440    -0.0000     2.2070 o          1 LK7      -0.461100
      6 C5           1.4220     0.0000     2.4610 c3         1 LK7       0.276700
      7 N1           2.0380     0.9400     3.4120 nu         1 LK7      -0.810000
      8 C6           2.5990     0.2220     4.4670 ce         1 LK7       0.156800
      9 C7           3.3300     0.8540     5.5820 c          1 LK7       0.896800
     10 O2           3.7940     0.1670     6.4710 o          1 LK7      -0.836800
     11 O3           3.4820     2.1930     5.6150 o          1 LK7      -0.836800
     12 C8           2.4120    -1.0790     4.3680 c2         1 LK7      -0.279400
     13 C9           1.5430    -1.3620     3.1500 c3         1 LK7      -0.016500
     14 C10          2.3050    -2.3760     2.2960 c3         1 LK7      -0.068400
     15 C11          2.6390    -3.5900     3.1690 c3         1 LK7      -0.067400
     16 C12          3.5980    -3.2150     4.2950 c3         1 LK7      -0.095400
     17 C13          2.9370    -2.1970     5.2400 c3         1 LK7       0.226300
     18 O4           1.8580    -2.8140     5.9470 os         1 LK7      -0.434600
     19 C14          2.2300    -3.3550     7.2160 c3         1 LK7       0.134700
     20 H11         -0.3610     0.8890     0.5030 hc         1 LK7       0.040700
     21 H12         -0.3610    -0.0090    -1.0210 hc         1 LK7       0.040700
     22 H13A        -0.3610    -0.8800     0.5180 hc         1 LK7       0.040700
     23 H2           2.0490     0.0000    -0.9380 ha         1 LK7       0.113000
     24 H4           4.1780     0.0570     0.2180 h4         1 LK7      -0.026800
     25 H5           0.3800     0.2520     2.3040 h1         1 LK7       0.037700
     26 HN1          2.0510     1.9360     3.3170 hn         1 LK7       0.460800
     27 H9           0.5720    -1.7430     3.4430 hc         1 LK7       0.052700
     28 H101         1.6870    -2.6860     1.4620 hc         1 LK7       0.027700
     29 H102         3.2210    -1.9280     1.9300 hc         1 LK7       0.027700
     30 H111         1.7230    -3.9780     3.5980 hc         1 LK7       0.024700
     31 H112         3.0990    -4.3530     2.5520 hc         1 LK7       0.024700
     32 H121         4.4940    -2.7780     3.8710 hc         1 LK7       0.033700
     33 H122         3.8570    -4.1050     4.8550 hc         1 LK7       0.033700
     34 H13          3.6700    -1.8090     5.9360 h1         1 LK7       0.105700
     35 H141         3.2440    -3.7340     7.1640 h1         1 LK7       0.016700
     36 H142         2.1730    -2.5800     7.9700 h1         1 LK7       0.016700
     37 H143         1.5560    -4.1620     7.4760 h1         1 LK7       0.016700
@<TRIPOS>BOND
     1     1     2 1
     2     1    20 1
     3     1    21 1
     4     1    22 1
     5     2     3 2
     6     2    23 1
     7     3     4 1
     8     3     6 1
     9     4     5 2
    10     4    24 1
    11     6    13 1
    12     6     7 1
    13     6    25 1
    14     7     8 1
    15     7    26 1
    16     8    12 2
    17     8     9 1
    18     9    10 1
    19     9    11 1
    20    12    17 1
    21    12    13 1
    22    13    14 1
    23    13    27 1
    24    14    15 1
    25    14    28 1
    26    14    29 1
    27    15    16 1
    28    15    30 1
    29    15    31 1
    30    16    17 1
    31    16    32 1
    32    16    33 1
    33    17    18 1
    34    17    34 1
    35    18    19 1
    36    19    35 1
    37    19    36 1
    38    19    37 1
@<TRIPOS>SUBSTRUCTURE
     1 LK7         1 TEMP              0 ****  ****    0 ROOT
