@<TRIPOS>MOLECULE
LK7
   37    39     1     0     0
SMALL
bcc


@<TRIPOS>ATOM
      1 C1           0.0000     0.0000     0.0000 DU         1 LK7      -0.140000
      2 C2           1.5080     0.0000     0.0000 c2         1 LK7      -0.481000
      3 C3           2.1750     0.0000     1.1560 c2         1 LK7      -0.040000
      4 C4           3.6370     0.0000     1.1550 c2         1 LK7       0.277000
      5 O1           4.2440    -0.0000     2.2070 o          1 LK7      -0.252000
      6 C5           1.4220     0.0000     2.4610 c3         1 LK7      -0.080000
      7 N1           2.0380     0.9400     3.4120 n7         1 LK7       0.035000
      8 C6           2.5990     0.2220     4.4670 c2         1 LK7      -0.041000
      9 C7           3.3300     0.8540     5.5820 c2         1 LK7       0.445000
     10 O2           3.7940     0.1670     6.4710 o          1 LK7      -0.619000
     11 O3           3.4820     2.1930     5.6150 o          1 LK7      -0.619000
     12 C8           2.4120    -1.0790     4.3680 c2         1 LK7      -0.297000
     13 C9           1.5430    -1.3620     3.1500 c3         1 LK7      -0.017000
     14 C10          2.3050    -2.3760     2.2960 c3         1 LK7      -0.126000
     15 C11          2.6390    -3.5900     3.1690 c3         1 LK7      -0.089000
     16 C12          3.5980    -3.2150     4.2950 c3         1 LK7      -0.131000
     17 C13          2.9370    -2.1970     5.2400 c3         1 LK7       0.145000
     18 O4           1.8580    -2.8140     5.9470 os         1 LK7      -0.277000
     19 C14          2.2300    -3.3550     7.2160 c3         1 LK7       0.058000
     20 H11         -0.3610    -0.8180     0.6110 ha         1 LK7       0.057333
     21 H12         -0.3610    -0.1200    -1.0140 ha         1 LK7       0.057333
     22 H13A        -0.3610     0.9390     0.4030 ha         1 LK7       0.057333
     23 H2           0.8960    -0.8750     0.1840 DU         1 LK7       0.320000
     24 H4           4.1780     0.0470     0.2180 h4         1 LK7       0.063000
     25 H5           0.3800     0.2520     2.3040 h1         1 LK7       0.057000
     26 HN1          2.0510     1.9360     3.3170 hn         1 LK7       0.115000
     27 H9           0.5720    -1.7430     3.4430 hc         1 LK7       0.068000
     28 H101         3.2210    -1.9280     1.9300 hc         1 LK7       0.048000
     29 H102         1.6870    -2.6860     1.4620 hc         1 LK7       0.048000
     30 H111         1.7230    -3.9780     3.5980 hc         1 LK7       0.040000
     31 H112         3.0990    -4.3520     2.5520 hc         1 LK7       0.040000
     32 H121         3.8570    -4.1050     4.8550 hc         1 LK7       0.051000
     33 H122         4.4940    -2.7780     3.8710 hc         1 LK7       0.051000
     34 H13          3.6700    -1.8090     5.9360 h1         1 LK7       0.124000
     35 H141         3.2340    -3.7580     7.1570 h1         1 LK7       0.018000
     36 H142         1.5400    -4.1450     7.4880 h1         1 LK7       0.018000
     37 H143         2.1980    -2.5740     7.9660 h1         1 LK7       0.018000
@<TRIPOS>BOND
     1     1     2 1   
     2     1    20 1   
     3     1    21 1   
     4     1    22 1   
     5     1    23 1   
     6     2     3 1   
     7     2    23 1   
     8     3     4 1   
     9     3     6 1   
    10     4     5 1   
    11     4    24 1   
    12     6     7 1   
    13     6    13 1   
    14     6    25 1   
    15     7     8 1   
    16     7    26 1   
    17     8     9 1   
    18     8    12 1   
    19     9    10 1   
    20     9    11 1   
    21    12    13 1   
    22    12    17 1   
    23    13    14 1   
    24    13    27 1   
    25    14    15 1   
    26    14    28 1   
    27    14    29 1   
    28    15    16 1   
    29    15    30 1   
    30    15    31 1   
    31    16    17 1   
    32    16    32 1   
    33    16    33 1   
    34    17    18 1   
    35    17    34 1   
    36    18    19 1   
    37    19    35 1   
    38    19    36 1   
    39    19    37 1   
@<TRIPOS>SUBSTRUCTURE
     1 LK7         1 TEMP              0 ****  ****    0 ROOT
