@<TRIPOS>MOLECULE
molecule
   26    26     1     0     0
SMALL
bcc


@<TRIPOS>ATOM
      1 C5           0.0000     0.0000     0.0000 c3         1 LKA      -0.014600
      2 S0           1.8150     0.0000     0.0000 ss         1 LKA      -0.131200
      3 C1           2.1190     0.0000     1.7890 c3         1 LKA       0.112600
      4 N1           1.5990    -1.2430     2.3750 nz         1 LKA      -0.814600
      5 C2           1.4120     1.1980     2.4230 c3         1 LKA       0.119100
      6 O2           1.8430     2.3970     1.7740 oh         1 LKA      -0.535800
      7 C3          -0.1000     1.0540     2.2690 c3         1 LKA       0.114100
      8 O3          -0.7500     2.0650     3.0400 oh         1 LKA      -0.556800
      9 C4          -0.5040     1.1990     0.8040 c3         1 LKA       0.147100
     10 O4          -1.9290     1.2660     0.7130 oh         1 LKA      -0.591800
     11 C6          -0.5110     0.0980    -1.4390 c3         1 LKA       0.165400
     12 O6          -0.1330     1.3590    -1.9950 oh         1 LKA      -0.604800
     13 H5          -0.3600    -0.9150     0.4550 h1         1 LKA       0.055700
     14 H1           3.1850     0.0730     1.9720 hx         1 LKA       0.146700
     15 HN11         2.2700    -1.9760     2.2540 hn         1 LKA       0.453467
     16 HN12         0.7450    -1.4950     1.9190 hn         1 LKA       0.453467
     17 H2           1.6620     1.2450     3.4760 h1         1 LKA       0.060700
     18 HO2          2.4590     2.8500     2.3250 ho         1 LKA       0.431000
     19 H3          -0.4020     0.0770     2.6250 h1         1 LKA       0.006700
     20 HO3         -1.2150     1.6650     3.7550 ho         1 LKA       0.422000
     21 H4          -0.0710     2.1070     0.4010 h1         1 LKA       0.119700
     22 HO4         -2.1960     2.1660     0.6240 ho         1 LKA       0.441000
     23 H61         -1.5910     0.0090    -1.4450 h1         1 LKA       0.059200
     24 H62         -0.0800    -0.7010    -2.0300 h1         1 LKA       0.059200
     25 HO6         -0.1880     1.3170    -2.9350 ho         1 LKA       0.430000
     26 H13          1.4210    -1.1030     3.3500 hn         1 LKA       0.453467
@<TRIPOS>BOND
     1     1     2 1
     2     1     9 1
     3     1    11 1
     4     1    13 1
     5     2     3 1
     6     3     4 1
     7     3     5 1
     8     3    14 1
     9     4    15 1
    10     4    16 1
    11     5     6 1
    12     5     7 1
    13     5    17 1
    14     6    18 1
    15     7     8 1
    16     7     9 1
    17     7    19 1
    18     8    20 1
    19     9    10 1
    20     9    21 1
    21    10    22 1
    22    11    12 1
    23    11    23 1
    24    11    24 1
    25    12    25 1
    26    26     4 1
@<TRIPOS>SUBSTRUCTURE
     1 LKA         1 TEMP              0 ****  ****    0 ROOT
