@<TRIPOS>MOLECULE
LKB
   39    42     1     0     0
SMALL
bcc


@<TRIPOS>ATOM
      1 N4          -1.3300    -0.0290    -2.2150 n1         1 LKB      -0.380800
      2 C19         -0.7270    -0.0160    -1.2460 cg         1 LKB       0.229800
      3 C16          0.0000     0.0000     0.0000 ca         1 LKB       0.027000
      4 C15          1.3890     0.0000     0.0000 ca         1 LKB      -0.066500
      5 C14          2.0810     0.0000     1.1970 ca         1 LKB      -0.106500
      6 C17         -0.6820     0.0070     1.2090 ca         1 LKB      -0.066500
      7 C18          0.0190     0.0050     2.4020 ca         1 LKB      -0.106500
      8 C13          1.4130    -0.0030     2.4210 cp         1 LKB       0.012000
      9 C10          2.1650    -0.0410     3.7000 cp         1 LKB      -0.188300
     10 C9           3.4670    -0.5400     3.7550 ca         1 LKB       0.427200
     11 N3           4.2100    -0.6120     4.8680 nb         1 LKB      -0.580000
     12 C11          1.5850     0.4200     4.8870 ca         1 LKB      -0.009000
     13 C12          2.3220     0.3640     6.0690 ca         1 LKB      -0.220100
     14 C8           3.6160    -0.1610     5.9760 ca         1 LKB       0.231800
     15 N2           4.1560    -0.1250     7.2300 na         1 LKB       0.281900
     16 C7           3.2280     0.4070     8.0810 cc         1 LKB      -0.274100
     17 C6           2.0320     0.7510     7.4550 cd         1 LKB      -0.140600
     18 N1           0.8430     1.3130     7.9390 ns         1 LKB       0.016900
     19 C5           0.5870     1.5040     9.2770 c          1 LKB       0.592700
     20 O            1.3830     1.1840    10.1540 o          1 LKB      -0.622100
     21 C2          -0.7250     2.1310     9.6200 ca         1 LKB      -0.276900
     22 C1          -1.8720     1.8870     8.8810 ca         1 LKB      -0.049000
     23 C3          -0.8390     2.9840    10.7100 ca         1 LKB       0.458200
     24 N           -1.9830     3.5750    11.0770 nb         1 LKB      -0.582000
     25 C4          -3.0700     3.3170    10.3410 ca         1 LKB       0.423200
     26 C           -3.0620     2.4860     9.2430 ca         1 LKB      -0.223300
     27 H10          1.9310     0.0020    -0.9380 ha         1 LKB       0.114000
     28 H9           3.1640    -0.0030     1.1840 ha         1 LKB       0.112000
     29 H11         -1.7650     0.0130     1.2190 ha         1 LKB       0.114000
     30 H12         -0.5260     0.0070     3.3380 ha         1 LKB       0.112000
     31 H7           3.9080    -0.8960     2.8320 h4         1 LKB      -0.020900
     32 H8           0.6530     0.9720     4.8550 ha         1 LKB       0.103000
     33 H6           5.0740    -0.4340     7.4830 hn         1 LKB       0.131700
     34 H5           3.4050     0.5470     9.1400 h4         1 LKB       0.169000
     35 H4           0.1450     1.5900     7.2770 hn         1 LKB       0.164500
     36 H1          -1.8340     1.2290     8.0220 ha         1 LKB       0.103000
     37 H2           0.0500     3.1850    11.2960 h4         1 LKB      -0.006900
     38 H3          -4.0050     3.7860    10.6240 h4         1 LKB      -0.022900
     39 H           -3.9670     2.3060     8.6770 ha         1 LKB       0.120000
@<TRIPOS>BOND
     1     1     2 3   
     2     2     3 1   
     3     3     4 ar  
     4     3     6 ar  
     5     4     5 ar  
     6     4    27 1   
     7     5     8 ar  
     8     5    28 1   
     9     6     7 ar  
    10     6    29 1   
    11     7     8 ar  
    12     7    30 1   
    13     8     9 1   
    14     9    10 ar  
    15     9    12 ar  
    16    10    11 ar  
    17    10    31 1   
    18    11    14 ar  
    19    12    13 ar  
    20    12    32 1   
    21    13    14 ar  
    22    13    17 1   
    23    14    15 1   
    24    15    16 1   
    25    15    33 1   
    26    16    17 2   
    27    16    34 1   
    28    17    18 1   
    29    18    19 1   
    30    18    35 1   
    31    19    20 2   
    32    19    21 1   
    33    21    22 ar  
    34    21    23 ar  
    35    22    26 ar  
    36    22    36 1   
    37    23    24 ar  
    38    23    37 1   
    39    24    25 ar  
    40    25    26 ar  
    41    25    38 1   
    42    26    39 1   
@<TRIPOS>SUBSTRUCTURE
     1 LKB         1 TEMP              0 ****  ****    0 ROOT
