@<TRIPOS>MOLECULE
molecule
   39    42     1     0     0
SMALL
bcc


@<TRIPOS>ATOM
      1 N4          -1.3300    -0.0290    -2.2150 n1         1 LKB      -0.360800
      2 C19         -0.7270    -0.0160    -1.2460 cg         1 LKB       0.235800
      3 C16          0.0000     0.0000     0.0000 ca         1 LKB      -0.017000
      4 C15          1.3890     0.0000     0.0000 ca         1 LKB      -0.087000
      5 C14          2.0810     0.0000     1.1970 ca         1 LKB      -0.131000
      6 C17         -0.6820     0.0070     1.2090 ca         1 LKB      -0.087000
      7 C18          0.0190     0.0050     2.4020 ca         1 LKB      -0.131000
      8 C13          1.4130    -0.0030     2.4210 cp         1 LKB       0.006000
      9 C10          2.1650    -0.0410     3.7000 cp         1 LKB      -0.194300
     10 C9           3.4670    -0.5400     3.7550 ca         1 LKB       0.438200
     11 N3           4.2100    -0.6120     4.8680 nb         1 LKB      -0.671000
     12 C11          1.5850     0.4200     4.8870 ca         1 LKB      -0.040000
     13 C12          2.3220     0.3640     6.0690 ca         1 LKB      -0.223100
     14 C8           3.6160    -0.1610     5.9760 ca         1 LKB       0.452800
     15 N2           4.1560    -0.1250     7.2300 na         1 LKB      -0.266100
     16 C7           3.2280     0.4070     8.0810 cd         1 LKB      -0.107100
     17 C6           2.0320     0.7510     7.4550 cc         1 LKB      -0.007600
     18 N1           0.8430     1.3130     7.9390 ns         1 LKB      -0.446100
     19 C5           0.5870     1.5040     9.2770 c          1 LKB       0.684700
     20 O            1.3830     1.1840    10.1540 o          1 LKB      -0.582100
     21 C2          -0.7250     2.1310     9.6200 ca         1 LKB      -0.265900
     22 C1          -1.8720     1.8870     8.8810 ca         1 LKB      -0.072000
     23 C3          -0.8390     2.9840    10.7100 ca         1 LKB       0.453200
     24 N           -1.9830     3.5750    11.0770 nb         1 LKB      -0.657000
     25 C4          -3.0700     3.3170    10.3410 ca         1 LKB       0.422200
     26 C           -3.0620     2.4860     9.2430 ca         1 LKB      -0.254300
     27 H10          1.9310     0.0020    -0.9380 ha         1 LKB       0.144000
     28 H9           3.1640    -0.0030     1.1840 ha         1 LKB       0.137000
     29 H11         -1.7650     0.0130     1.2190 ha         1 LKB       0.144000
     30 H12         -0.5260     0.0070     3.3380 ha         1 LKB       0.137000
     31 H7           3.9080    -0.8960     2.8320 h4         1 LKB       0.023100
     32 H8           0.6530     0.9720     4.8550 ha         1 LKB       0.131000
     33 H6           5.0740    -0.4340     7.4830 hn         1 LKB       0.321700
     34 H5           3.4050     0.5470     9.1400 h4         1 LKB       0.195000
     35 H4           0.1450     1.5900     7.2770 hn         1 LKB       0.328500
     36 H1          -1.8340     1.2290     8.0220 ha         1 LKB       0.133000
     37 H2           0.0500     3.1850    11.2960 h4         1 LKB       0.040100
     38 H3          -4.0050     3.7860    10.6240 h4         1 LKB       0.024100
     39 H           -3.9670     2.3060     8.6770 ha         1 LKB       0.148000
@<TRIPOS>BOND
     1    25    24 ar
     2    25    26 ar
     3    24    23 ar
     4    26    22 ar
     5    23    21 ar
     6    22    21 ar
     7    21    19 1
     8    19    20 2
     9    19    18 1
    10    18    17 1
    11    17    16 2
    12    17    13 1
    13    16    15 1
    14    13    12 ar
    15    13    14 ar
    16    12     9 ar
    17     7     6 ar
    18     7     8 ar
    19     6     3 ar
    20    15    14 1
    21    14    11 ar
    22     9     8 1
    23     9    10 ar
    24     8     5 ar
    25     3     2 1
    26     3     4 ar
    27     2     1 3
    28    10    11 ar
    29     5     4 ar
    30     4    27 1
    31     5    28 1
    32     6    29 1
    33     7    30 1
    34    10    31 1
    35    12    32 1
    36    15    33 1
    37    16    34 1
    38    18    35 1
    39    22    36 1
    40    23    37 1
    41    25    38 1
    42    26    39 1
@<TRIPOS>SUBSTRUCTURE
     1 LKB         1 TEMP              0 ****  ****    0 ROOT
