@<TRIPOS>MOLECULE
molecule
   50    53     1     0     0
SMALL
bcc


@<TRIPOS>ATOM
      1 CAL          0.0000     0.0000     0.0000 c3         1 LKF       0.187300
      2 CAO          1.5330     0.0000     0.0000 c3         1 LKF       0.119900
      3 OAK          2.0030     0.0000     1.3500 os         1 LKF      -0.424600
      4 CAN          1.6290    -1.1580     2.1000 c3         1 LKF       0.119900
      5 CAM          0.1010    -1.2180     2.2070 c3         1 LKF       0.187300
      6 NAH         -0.4640    -1.1050     0.8530 nh         1 LKF      -0.799300
      7 CAC         -1.4070    -2.0130     0.3950 cc         1 LKF       0.763200
      8 NAF         -1.7260    -3.0630     1.1260 nd         1 LKF      -0.796000
      9 CAJ         -2.6320    -3.9520     0.7040 cd         1 LKF       0.437200
     10 CAI         -3.2540    -3.8110    -0.4810 cc         1 LKF      -0.282600
     11 NAB         -2.9610    -2.7380    -1.2850 na         1 LKF       0.090700
     12 CAA         -2.0360    -1.8160    -0.8590 cc         1 LKF      -0.180600
     13 NAD         -1.9290    -0.8790    -1.7870 nd         1 LKF      -0.310600
     14 CAG         -2.7520    -1.1580    -2.7940 cd         1 LKF       0.067400
     15 CAP         -2.9250    -0.3350    -4.0450 c3         1 LKF      -0.005900
     16 CAE         -3.4070    -2.3250    -2.5080 cc         1 LKF      -0.077300
     17 CAQ         -4.4170    -3.0000    -3.3550 cc         1 LKF      -0.251100
     18 CAS         -5.4530    -2.4000    -4.0090 cd         1 LKF      -0.097300
     19 CAT         -4.4780    -4.3810    -3.6360 cc         1 LKF       0.331200
     20 NAU         -5.5060    -4.5900    -4.4150 nd         1 LKF      -0.479800
     21 NAR         -6.1340    -3.3640    -4.6640 na         1 LKF       0.069400
     22 CAV         -7.3250    -3.1610    -5.4950 c3         1 LKF       0.077300
     23 CAW         -7.0790    -3.7460    -6.8870 c3         1 LKF       0.128100
     24 CAZ         -8.2710    -3.4260    -7.7920 c3         1 LKF      -0.123100
     25 OAX         -6.9240    -5.1630    -6.7880 os         1 LKF      -0.403600
     26 CAY         -6.0690    -5.7250    -7.7870 c3         1 LKF       0.131700
     27 HAL1        -0.3640    -0.1430    -1.0100 h1         1 LKF       0.078950
     28 HAL2        -0.3640     0.9410     0.3950 h1         1 LKF       0.078950
     29 HAO1         1.8940    -0.8860    -0.5080 h1         1 LKF       0.054700
     30 HAO2         1.8930     0.8870    -0.5070 h1         1 LKF       0.054700
     31 HAN1         1.9900    -2.0460     1.5960 h1         1 LKF       0.054700
     32 HAN2         2.0580    -1.0990     3.0930 h1         1 LKF       0.054700
     33 HAM1        -0.1960    -2.1620     2.6480 h1         1 LKF       0.078950
     34 HAM2        -0.2530    -0.3960     2.8180 h1         1 LKF       0.078950
     35 HAJ         -2.8700    -4.8030     1.3310 h4         1 LKF       0.035100
     36 HAI         -3.9840    -4.5450    -0.8010 h4         1 LKF       0.167000
     37 HAP1        -2.8670    -0.9810    -4.9130 hc         1 LKF       0.046700
     38 HAP2        -2.1410     0.4110    -4.0970 hc         1 LKF       0.046700
     39 HAP3        -3.8900     0.1560    -4.0240 hc         1 LKF       0.046700
     40 HAS         -5.6890    -1.3420    -4.0010 h4         1 LKF       0.175000
     41 HAT         -3.7950    -5.1360    -3.2680 h4         1 LKF       0.052100
     42 HAV1        -7.5300    -2.1010    -5.5790 h1         1 LKF       0.071200
     43 HAV2        -8.1720    -3.6590    -5.0390 h1         1 LKF       0.071200
     44 HAW         -6.1800    -3.3120    -7.3080 h1         1 LKF       0.045700
     45 HAZ1        -9.0170    -4.2050    -7.6940 hc         1 LKF       0.046033
     46 HAZ2        -7.9390    -3.3710    -8.8210 hc         1 LKF       0.046033
     47 HAZ3        -8.7010    -2.4760    -7.5000 hc         1 LKF       0.046033
     48 HAY1        -5.5060    -4.9330    -8.2670 h1         1 LKF       0.031367
     49 HAY2        -6.6680    -6.2410    -8.5270 h1         1 LKF       0.031367
     50 HAY3        -5.3840    -6.4250    -7.3240 h1         1 LKF       0.031367
@<TRIPOS>BOND
     1     1     2 1
     2     1     6 1
     3     2     3 1
     4     3     4 1
     5     4     5 1
     6     5     6 1
     7     6     7 1
     8     7     8 2
     9     7    12 1
    10     8     9 1
    11     9    10 2
    12    10    11 1
    13    11    12 1
    14    11    16 1
    15    12    13 2
    16    13    14 1
    17    14    15 1
    18    14    16 2
    19    16    17 1
    20    17    18 2
    21    17    19 1
    22    18    21 1
    23    19    20 2
    24    20    21 1
    25    21    22 1
    26    22    23 1
    27    23    24 1
    28    23    25 1
    29    25    26 1
    30     1    27 1
    31     1    28 1
    32     2    29 1
    33     2    30 1
    34     4    31 1
    35     4    32 1
    36     5    33 1
    37     5    34 1
    38     9    35 1
    39    10    36 1
    40    15    37 1
    41    15    38 1
    42    15    39 1
    43    18    40 1
    44    19    41 1
    45    22    42 1
    46    22    43 1
    47    23    44 1
    48    24    45 1
    49    24    46 1
    50    24    47 1
    51    26    48 1
    52    26    49 1
    53    26    50 1
@<TRIPOS>SUBSTRUCTURE
     1 LKF         1 TEMP              0 ****  ****    0 ROOT
