@<TRIPOS>MOLECULE
LKF
   50    53     1     0     0
SMALL
bcc


@<TRIPOS>ATOM
      1 CAL          0.0000     0.0000     0.0000 c3         1 LKF       0.091300
      2 CAO          1.5330     0.0000     0.0000 c3         1 LKF       0.200400
      3 OAK          2.0030     0.0000     1.3500 os         1 LKF      -0.409600
      4 CAN          1.6290    -1.1580     2.1000 c3         1 LKF       0.200400
      5 CAM          0.1010    -1.2180     2.2070 c3         1 LKF       0.091300
      6 NAH         -0.4640    -1.1050     0.8530 nh         1 LKF      -0.407300
      7 CAC         -1.4070    -2.0130     0.3950 cc         1 LKF       0.610200
      8 NAF         -1.7260    -3.0630     1.1260 nd         1 LKF      -0.731000
      9 CAJ         -2.6320    -3.9520     0.7040 cd         1 LKF       0.488200
     10 CAI         -3.2540    -3.8110    -0.4810 cc         1 LKF      -0.506600
     11 NAB         -2.9610    -2.7380    -1.2850 na         1 LKF       0.700700
     12 CAA         -2.0360    -1.8160    -0.8590 cc         1 LKF      -0.422600
     13 NAD         -1.9290    -0.8790    -1.7870 nd         1 LKF      -0.223600
     14 CAG         -2.7520    -1.1580    -2.7940 cd         1 LKF       0.043400
     15 CAP         -2.9250    -0.3350    -4.0450 c3         1 LKF       0.099100
     16 CAE         -3.4070    -2.3250    -2.5080 cc         1 LKF      -0.291300
     17 CAQ         -4.4170    -3.0000    -3.3550 cc         1 LKF      -0.234100
     18 CAS         -5.4530    -2.4000    -4.0090 cd         1 LKF      -0.244300
     19 CAT         -4.4780    -4.3810    -3.6360 cc         1 LKF       0.382200
     20 NAU         -5.5060    -4.5900    -4.4150 nd         1 LKF      -0.617800
     21 NAR         -6.1340    -3.3640    -4.6640 na         1 LKF       0.495400
     22 CAV         -7.3250    -3.1610    -5.4950 c3         1 LKF      -0.015700
     23 CAW         -7.0790    -3.7460    -6.8870 c3         1 LKF       0.162100
     24 CAZ         -8.2710    -3.4260    -7.7920 c3         1 LKF      -0.029100
     25 OAX         -6.9240    -5.1630    -6.7880 os         1 LKF      -0.388600
     26 CAY         -6.0690    -5.7250    -7.7870 c3         1 LKF       0.249700
     27 HAL1        -0.3640    -0.1430    -1.0100 h1         1 LKF       0.055450
     28 HAL2        -0.3640     0.9410     0.3950 h1         1 LKF       0.055450
     29 HAO1         1.8940    -0.8860    -0.5080 h1         1 LKF       0.014450
     30 HAO2         1.8930     0.8870    -0.5070 h1         1 LKF       0.014450
     31 HAN1         1.9900    -2.0460     1.5960 h1         1 LKF       0.014450
     32 HAN2         2.0580    -1.0990     3.0930 h1         1 LKF       0.014450
     33 HAM1        -0.1960    -2.1620     2.6480 h1         1 LKF       0.055450
     34 HAM2        -0.2530    -0.3960     2.8180 h1         1 LKF       0.055450
     35 HAJ         -2.8700    -4.8030     1.3310 h4         1 LKF      -0.014900
     36 HAI         -3.9840    -4.5450    -0.8010 h4         1 LKF       0.155000
     37 HAP1        -2.8670    -0.9810    -4.9130 hc         1 LKF       0.008033
     38 HAP2        -2.1410     0.4110    -4.0970 hc         1 LKF       0.008033
     39 HAP3        -3.8900     0.1560    -4.0240 hc         1 LKF       0.008033
     40 HAS         -5.6890    -1.3420    -4.0010 h4         1 LKF       0.152000
     41 HAT         -3.7950    -5.1360    -3.2680 h4         1 LKF       0.006100
     42 HAV1        -7.5300    -2.1010    -5.5790 h1         1 LKF       0.040200
     43 HAV2        -8.1720    -3.6590    -5.0390 h1         1 LKF       0.040200
     44 HAW         -6.1800    -3.3120    -7.3080 h1         1 LKF       0.015700
     45 HAZ1        -9.0170    -4.2050    -7.6940 hc         1 LKF       0.013033
     46 HAZ2        -7.9390    -3.3710    -8.8210 hc         1 LKF       0.013033
     47 HAZ3        -8.7010    -2.4760    -7.5000 hc         1 LKF       0.013033
     48 HAY1        -5.5060    -4.9330    -8.2670 h1         1 LKF      -0.009967
     49 HAY2        -6.6680    -6.2410    -8.5270 h1         1 LKF      -0.009967
     50 HAY3        -5.3840    -6.4250    -7.3240 h1         1 LKF      -0.009967
@<TRIPOS>BOND
     1     1     2 1   
     2     1     6 1   
     3     1    27 1   
     4     1    28 1   
     5     2     3 1   
     6     2    29 1   
     7     2    30 1   
     8     3     4 1   
     9     4     5 1   
    10     4    31 1   
    11     4    32 1   
    12     5     6 1   
    13     5    33 1   
    14     5    34 1   
    15     6     7 1   
    16     7     8 2   
    17     7    12 1   
    18     8     9 1   
    19     9    10 2   
    20     9    35 1   
    21    10    11 1   
    22    10    36 1   
    23    11    12 1   
    24    11    16 1   
    25    12    13 2   
    26    13    14 1   
    27    14    15 1   
    28    14    16 2   
    29    15    37 1   
    30    15    38 1   
    31    15    39 1   
    32    16    17 1   
    33    17    18 2   
    34    17    19 1   
    35    18    21 1   
    36    18    40 1   
    37    19    20 2   
    38    19    41 1   
    39    20    21 1   
    40    21    22 1   
    41    22    23 1   
    42    22    42 1   
    43    22    43 1   
    44    23    24 1   
    45    23    25 1   
    46    23    44 1   
    47    24    45 1   
    48    24    46 1   
    49    24    47 1   
    50    25    26 1   
    51    26    48 1   
    52    26    49 1   
    53    26    50 1   
@<TRIPOS>SUBSTRUCTURE
     1 LKF         1 TEMP              0 ****  ****    0 ROOT
