@<TRIPOS>MOLECULE
LKG
   37    38     1     0     0
SMALL
bcc


@<TRIPOS>ATOM
      1 N1         -0.6440    0.8490    0.8580 na        1 LKG     -0.106000
      2 N3          0.5800    1.6720   -0.8750 n2        1 LKG      0.058000
      3 C4         -0.2110   -0.5150    4.1930 ca        1 LKG     -0.067000
      4 C5         -1.1790    0.0670    5.0210 ca        1 LKG     -0.096500
      5 C6         -1.4180   -0.4610    6.2890 ca        1 LKG     -0.132000
      6 C7          0.0700    0.0500    2.8620 c2        1 LKG     -0.003000
      7 C8          1.5200    0.2950    2.5300 c3        1 LKG     -0.231000
      8 C10         0.7110    1.1450    0.3950 c2        1 LKG     -0.220000
      9 C13        -3.5890    1.7500   -1.2860 c1        1 LKG     -0.195000
     10 C15        -0.4980    3.3290   -4.7290 c1        1 LKG     -0.227000
     11 C17        -4.7600    2.9250   -3.2840 c2        1 LKG     -0.147000
     12 C14        -0.5360    3.8160   -5.8210 c1        1 LKG     -0.227000
     13 C16        -4.0740    3.4290   -4.3330 c2        1 LKG      0.007000
     14 O1         -4.7870    4.0330   -5.3410 oh        1 LKG     -0.258000
     15 C18        -4.1200    2.2940   -2.2130 c1        1 LKG     -0.056000
     16 C11        -1.4820    1.2280   -0.1860 c2        1 LKG      0.024000
     17 N2         -0.9430    0.3200    2.0550 n2        1 LKG     -0.044000
     18 N4         -0.6680    1.7210   -1.2080 n2        1 LKG     -0.105000
     19 C9          1.8290    0.8760    1.2140 c1        1 LKG      0.040000
     20 C3          0.5010   -1.6380    4.6370 ca        1 LKG     -0.096500
     21 C2          0.2520   -2.1630    5.9030 ca        1 LKG     -0.132000
     22 C1         -0.7040   -1.5740    6.7320 ca        1 LKG     -0.108000
     23 H5         -1.7500    0.9420    4.6740 ha        1 LKG      0.141000
     24 H6         -2.1750    0.0020    6.9390 ha        1 LKG      0.140500
     25 H8          1.9620    0.9840    3.3090 hc        1 LKG      0.170000
     26 H15        -0.4530    2.8950   -3.7570 ha        1 LKG      0.228000
     27 H17        -2.9770    3.3900   -4.4400 h4        1 LKG      0.150000
     28 H14        -0.5550    4.2450   -6.7900 ha        1 LKG      0.228000
     29 HO1        -4.1480    4.3370   -6.0010 ho        1 LKG      0.221000
     30 H18        -5.8610    2.9960   -3.2360 ha        1 LKG      0.158000
     31 H12        -3.3660    1.5240    0.7890 hc        1 LKG      0.129500
     32 H12A       -3.2220   -0.0040   -0.1880 hc        1 LKG      0.129500
     33 H9          2.0930   -0.6750    2.6060 hc        1 LKG      0.170000
     34 H3          1.2490   -2.1150    3.9860 ha        1 LKG      0.141000
     35 H2          0.8110   -3.0450    6.2480 ha        1 LKG      0.140500
     36 H1         -0.8960   -1.9900    7.7320 ha        1 LKG      0.139000
     37 C12        -2.9680    1.0970   -0.1780 c3        1 LKG      0.034000
@<TRIPOS>BOND
     1    1    8 1   
     2    1   16 1   
     3    1   17 1   
     4    2    8 1   
     5    2   18 1   
     6    3    4 1   
     7    3    6 1   
     8    3   20 1   
     9    4    5 1   
    10    4   23 1   
    11    5   22 1   
    12    5   24 1   
    13    6    7 1   
    14    6   17 1   
    15    7   19 1   
    16    7   25 1   
    17    7   33 1   
    18    8   19 1   
    19    9   15 1   
    20    9   37 1   
    21   10   12 1   
    22   10   26 1   
    23   11   13 1   
    24   11   15 1   
    25   11   30 1   
    26   12   28 1   
    27   13   14 1   
    28   13   27 1   
    29   14   29 1   
    30   16   18 1   
    31   16   37 1   
    32   20   21 1   
    33   20   34 1   
    34   21   22 1   
    35   21   35 1   
    36   22   36 1   
    37   31   37 1   
    38   32   37 1   
@<TRIPOS>SUBSTRUCTURE
     1 LKG         1 TEMP              0 ****  ****    0 ROOT
