@<TRIPOS>MOLECULE
molecule
   37    40     1     0     0
SMALL
bcc


@<TRIPOS>ATOM
      1 N1           0.0000     0.0000     0.0000 na         1 LKG       0.093300
      2 N3           1.7580     0.0020    -1.2660 nc         1 LKG      -0.063000
      3 C4          -0.8180     0.0040     3.6250 ca         1 LKG      -0.158500
      4 C5          -2.2120     0.0130     3.6040 ca         1 LKG      -0.093000
      5 C6          -2.9170     0.0110     4.7900 ca         1 LKG      -0.133000
      6 C7          -0.0550     0.0060     2.3530 cc         1 LKG       0.482800
      7 C8           1.3560    -0.0030     2.3860 cc         1 LKG      -0.261300
      8 C10          1.3750     0.0000     0.0000 cd         1 LKG      -0.138300
      9 C13         -2.2580     1.4230    -1.9900 ca         1 LKG      -0.103300
     10 C15         -2.4970     3.3770    -3.3540 ca         1 LKG      -0.154500
     11 C17         -3.3300     3.3720    -1.1020 ca         1 LKG      -0.154500
     12 C14         -2.0610     2.0760    -3.1940 ca         1 LKG      -0.099500
     13 C16         -3.1340     4.0290    -2.3080 ca         1 LKG       0.109100
     14 O1          -3.5630     5.3090    -2.4650 oh         1 LKG      -0.523100
     15 C18         -2.8920     2.0710    -0.9460 ca         1 LKG      -0.099500
     16 C11         -0.3720     0.0020    -1.2990 cd         1 LKG       0.353800
     17 N2          -0.7010     0.0030     1.2070 nd         1 LKG      -0.485800
     18 N4           0.7180     0.0030    -2.0250 nc         1 LKG      -0.357700
     19 C9           2.0660     0.0000     1.2270 cd         1 LKG      -0.015000
     20 C3          -0.1450    -0.0010     4.8450 ca         1 LKG      -0.093000
     21 C2          -0.8610     0.0030     6.0250 ca         1 LKG      -0.133000
     22 C1          -2.2430     0.0010     5.9990 ca         1 LKG      -0.105000
     23 H5          -2.7400     0.0210     2.6580 ha         1 LKG       0.142500
     24 H6          -4.0000     0.0140     4.7750 ha         1 LKG       0.137500
     25 H8           1.8740    -0.0120     3.3370 ha         1 LKG       0.154000
     26 H15         -2.3420     3.8880    -4.2970 ha         1 LKG       0.141500
     27 H17         -3.8270     3.8790    -0.2840 ha         1 LKG       0.141500
     28 H14         -1.5630     1.5670    -4.0110 ha         1 LKG       0.140500
     29 HO1         -2.8780     5.9040    -2.2090 ho         1 LKG       0.420000
     30 H18         -3.0450     1.5570    -0.0040 ha         1 LKG       0.140500
     31 H12         -1.8210    -0.5080    -2.7740 hc         1 LKG       0.075700
     32 H12A        -2.4310    -0.5090    -1.1130 hc         1 LKG       0.075700
     33 H9           3.1490    -0.0070     1.2470 ha         1 LKG       0.167000
     34 H3           0.9380    -0.0030     4.8670 ha         1 LKG       0.142500
     35 H2          -0.3380    -0.0030     6.9740 ha         1 LKG       0.137500
     36 H1          -2.8000     0.0020     6.9280 ha         1 LKG       0.135000
     37 C12         -1.7870     0.0020    -1.8190 c3         1 LKG      -0.020400
@<TRIPOS>BOND
     1     1     8 1
     2     1    16 1
     3     1    17 1
     4     2     8 2
     5     2    18 1
     6     3     4 ar
     7     3     6 1
     8     3    20 ar
     9     4     5 ar
    10     5    22 ar
    11     6     7 1
    12     6    17 2
    13     7    19 2
    14     8    19 1
    15     9    12 ar
    16     9    15 ar
    17     9    37 1
    18    10    12 ar
    19    10    13 ar
    20    11    13 ar
    21    11    15 ar
    22    13    14 1
    23    37    16 1
    24    16    18 2
    25    20    21 ar
    26    21    22 ar
    27     4    23 1
    28     5    24 1
    29     7    25 1
    30    10    26 1
    31    11    27 1
    32    12    28 1
    33    14    29 1
    34    15    30 1
    35    37    31 1
    36    37    32 1
    37    19    33 1
    38    20    34 1
    39    21    35 1
    40    22    36 1
@<TRIPOS>SUBSTRUCTURE
     1 LKG         1 TEMP              0 ****  ****    0 ROOT
