@<TRIPOS>MOLECULE
LKM
   51    53     1     0     0
SMALL
bcc


@<TRIPOS>ATOM
      1 N31         -1.4270     0.0240    -1.9650 n1         1 LKM      -0.405800
      2 C30         -0.7170     0.0060    -1.0650 cg         1 LKM       0.264800
      3 C27          0.0000     0.0000     0.0000 ca         1 LKM      -0.005000
      4 C28          1.3890     0.0000     0.0000 ca         1 LKM      -0.062000
      5 C29          2.0790     0.0000     1.2140 ca         1 LKM      -0.049000
      6 C26         -0.6700     0.0070     1.2100 ca         1 LKM      -0.099000
      7 C25          0.0200     0.0070     2.4100 ca         1 LKM       0.094900
      8 C24          1.3790     0.0050     2.4060 ca         1 LKM      -0.122300
      9 C23          2.0420    -0.0150     3.7530 c3         1 LKM       0.274700
     10 O22          3.4200    -0.1610     3.5350 os         1 LKM      -0.334900
     11 C20          4.1940    -1.2430     3.8530 ca         1 LKM       0.152100
     12 C19          3.8580    -2.3310     4.6510 ca         1 LKM      -0.208000
     13 C18          4.8040    -3.3440     4.8540 ca         1 LKM       0.006000
     14 C21          5.4330    -1.1670     3.3070 ca         1 LKM      -0.174000
     15 C15          6.3540    -2.1400     3.5110 ca         1 LKM       0.046000
     16 C16          6.0630    -3.2430     4.2760 ca         1 LKM      -0.107000
     17 C17          7.0540    -4.1940     4.4430 ca         1 LKM       0.111000
     18 C14          7.5640    -1.9570     2.9010 ca         1 LKM      -0.163000
     19 C13          8.5350    -2.8960     3.0730 ca         1 LKM       0.026000
     20 C12          8.2790    -4.0110     3.8310 ca         1 LKM      -0.261500
     21 S11          9.4750    -5.0050     3.9970 sy         1 LKM       1.078200
     22 O33          8.9660    -6.3010     4.4110 o          1 LKM      -0.625800
     23 O32         10.3000    -5.0810     2.8100 o          1 LKM      -0.625800
     24 N           10.3660    -4.3750     5.0440 n7         1 LKM      -0.529100
     25 CA           9.9390    -4.2460     6.4350 c3         1 LKM       0.049500
     26 C           10.2040    -5.4960     7.2260 c          1 LKM       1.019600
     27 OXT          9.3630    -5.8380     8.0660 o          1 LKM      -0.895300
     28 O           11.2420    -6.1200     7.0150 o          1 LKM      -0.895300
     29 CB          10.6740    -3.0440     7.0430 c3         1 LKM      -0.001400
     30 CG          10.1320    -2.7380     8.4250 c3         1 LKM      -0.156400
     31 CD          10.6260    -1.4610     9.0610 c          1 LKM       1.017600
     32 OE1         10.4770    -1.3680    10.2830 o          1 LKM      -0.928800
     33 OE2         11.1490    -0.5750     8.3850 o          1 LKM      -0.928800
     34 F2          -0.6110     0.0100     3.5880 f          1 LKM      -0.119900
     35 H28          1.9340    -0.0040    -0.9360 ha         1 LKM       0.115000
     36 H26         -1.7540     0.0090     1.2180 ha         1 LKM       0.120000
     37 H29          3.1620    -0.0010     1.2210 ha         1 LKM       0.140000
     38 H231         1.8480     0.9150     4.2740 h1         1 LKM       0.026700
     39 H232         1.6700    -0.8500     4.3350 h1         1 LKM       0.026700
     40 H19          2.9530    -2.3090     5.2450 ha         1 LKM       0.109000
     41 H21          5.6920    -0.3110     2.6950 ha         1 LKM       0.116000
     42 H18          4.5590    -4.1980     5.4720 ha         1 LKM       0.111000
     43 H14          7.7530    -1.0720     2.3050 ha         1 LKM       0.106000
     44 H17          6.8670    -5.0800     5.0380 ha         1 LKM       0.146000
     45 H13          9.5020    -2.7700     2.6010 ha         1 LKM       0.126000
     46 H           11.2710    -4.0410     4.7780 hn         1 LKM       0.353800
     47 HA           8.8750    -4.0450     6.4530 h1         1 LKM       0.010700
     48 HBC1        11.7310    -3.2700     7.1150 hc         1 LKM       0.005700
     49 HBC2        10.5360    -2.1790     6.4050 hc         1 LKM       0.005700
     50 HGC1         9.0520    -2.6860     8.3590 hc         1 LKM       0.019200
     51 HGC2        10.3930    -3.5620     9.0780 hc         1 LKM       0.019200
@<TRIPOS>BOND
     1     1     2 3   
     2     2     3 1   
     3     3     4 ar  
     4     3     6 ar  
     5     4     5 ar  
     6     4    35 1   
     7     5     8 ar  
     8     5    37 1   
     9     6     7 ar  
    10     6    36 1   
    11     7     8 ar  
    12     7    34 1   
    13     8     9 1   
    14     9    10 1   
    15     9    38 1   
    16     9    39 1   
    17    10    11 1   
    18    11    12 ar  
    19    11    14 ar  
    20    12    13 ar  
    21    12    40 1   
    22    13    16 ar  
    23    13    42 1   
    24    14    15 ar  
    25    14    41 1   
    26    15    16 ar  
    27    15    18 ar  
    28    16    17 ar  
    29    17    20 ar  
    30    17    44 1   
    31    18    19 ar  
    32    18    43 1   
    33    19    20 ar  
    34    19    45 1   
    35    20    21 1   
    36    21    22 2   
    37    21    23 2   
    38    21    24 1   
    39    24    25 1   
    40    24    46 1   
    41    25    26 1   
    42    25    29 1   
    43    25    47 1   
    44    26    27 1   
    45    26    28 1   
    46    29    30 1   
    47    29    48 1   
    48    29    49 1   
    49    30    31 1   
    50    30    50 1   
    51    30    51 1   
    52    31    32 1   
    53    31    33 1   
@<TRIPOS>SUBSTRUCTURE
     1 LKM         1 TEMP              0 ****  ****    0 ROOT
