@<TRIPOS>MOLECULE
molecule
   41    42     1     0     0
SMALL
bcc


@<TRIPOS>ATOM
      1 C5           0.0000     0.0000     0.0000 c3         1 LKS       0.012400
      2 S1           1.8260     0.0000     0.0000 ss         1 LKS      -0.264200
      3 C1           2.1550     0.0000     1.7920 c3         1 LKS       0.312600
      4 N1           1.8790    -1.2970     2.3670 nu         1 LKS      -0.869200
      5 C2           1.3810     1.0910     2.5320 c3         1 LKS       0.123100
      6 O2           1.8780     2.3630     2.1030 oh         1 LKS      -0.584800
      7 C3          -0.1380     1.0270     2.3380 c3         1 LKS       0.139100
      8 O3          -0.7360     2.1120     3.0530 oh         1 LKS      -0.591800
      9 C4          -0.5800     1.1210     0.8730 c3         1 LKS       0.143100
     10 O4          -2.0090     1.0070     0.8390 oh         1 LKS      -0.613800
     11 C6          -0.4710     0.1160    -1.4520 c3         1 LKS       0.159400
     12 O6           0.1090    -0.9390    -2.1950 oh         1 LKS      -0.600800
     13 C7           2.5810    -1.8690     3.4070 c2         1 LKS       0.660200
     14 C8           2.1160    -3.2410     3.8640 c3         1 LKS      -0.139400
     15 C9           1.1040    -3.1410     4.9750 ca         1 LKS      -0.085300
     16 C10          1.5370    -3.1270     6.2930 ca         1 LKS      -0.122500
     17 C11          0.6000    -3.0340     7.3210 ca         1 LKS      -0.123500
     18 C14         -0.2460    -3.0650     4.6630 ca         1 LKS      -0.122500
     19 C13         -1.1830    -2.9730     5.6920 ca         1 LKS      -0.123500
     20 C12         -0.7610    -2.9570     7.0220 ca         1 LKS      -0.128000
     21 N2           3.5880    -1.3490     4.0410 n2         1 LKS      -0.902100
     22 H5          -0.3390    -0.9490     0.3980 h1         1 LKS       0.074700
     23 H1           3.2100     0.2040     1.9270 h2         1 LKS       0.115700
     24 HN1          1.1200    -1.8210     1.9800 hn         1 LKS       0.440800
     25 H2           1.5850     0.9850     3.5910 h1         1 LKS       0.060700
     26 HO2          2.4910     2.6920     2.7400 ho         1 LKS       0.409000
     27 H3          -0.4990     0.0920     2.7480 h1         1 LKS       0.047700
     28 HO3         -1.2940     1.7710     3.7330 ho         1 LKS       0.406000
     29 H4          -0.2810     2.0810     0.4700 h1         1 LKS       0.075700
     30 HO4         -2.3840     1.8330     0.5850 ho         1 LKS       0.412000
     31 H61         -0.1560     1.0680    -1.8630 h1         1 LKS       0.035200
     32 H62         -1.5510     0.0400    -1.4930 h1         1 LKS       0.035200
     33 HO6         -0.1990    -0.9040    -3.0850 ho         1 LKS       0.407000
     34 H81          2.9720    -3.8050     4.2150 hc         1 LKS       0.063200
     35 H82          1.6700    -3.7610     3.0240 hc         1 LKS       0.063200
     36 H10          2.5950    -3.1870     6.5210 ha         1 LKS       0.131000
     37 H11          0.9280    -3.0220     8.3540 ha         1 LKS       0.132500
     38 H14         -0.5700    -3.0770     3.6290 ha         1 LKS       0.131000
     39 H13         -2.2390    -2.9120     5.4590 ha         1 LKS       0.132500
     40 H12         -1.4880    -2.8850     7.8210 ha         1 LKS       0.133000
     41 HN2          4.0230    -1.8530     4.7880 hn         1 LKS       0.412400
@<TRIPOS>BOND
     1     1     2 1
     2     1     9 1
     3     1    11 1
     4     1    22 1
     5     2     3 1
     6     3     4 1
     7     3     5 1
     8     3    23 1
     9     4    13 1
    10     4    24 1
    11     5     6 1
    12     5     7 1
    13     5    25 1
    14     6    26 1
    15     7     8 1
    16     7     9 1
    17     7    27 1
    18     8    28 1
    19     9    10 1
    20     9    29 1
    21    10    30 1
    22    11    12 1
    23    11    31 1
    24    11    32 1
    25    12    33 1
    26    13    14 1
    27    13    21 2
    28    14    15 1
    29    14    34 1
    30    14    35 1
    31    15    16 ar
    32    15    18 ar
    33    16    17 ar
    34    16    36 1
    35    17    20 ar
    36    17    37 1
    37    18    19 ar
    38    18    38 1
    39    19    20 ar
    40    19    39 1
    41    20    40 1
    42    41    21 1
@<TRIPOS>SUBSTRUCTURE
     1 LKS         1 TEMP              0 ****  ****    0 ROOT
