@<TRIPOS>MOLECULE
LL1
   24    26     1     0     0
SMALL
bcc


@<TRIPOS>ATOM
      1 C4          0.0660    0.0050   -0.0290 ca        1 LL1     -0.194900
      2 C5          1.4600   -0.0110   -0.0050 ca        1 LL1     -0.065000
      3 C6          2.1010   -0.0150    1.2250 ca        1 LL1     -0.156000
      4 C1          1.3770   -0.0110    2.4330 ca        1 LL1     -0.098000
      5 C2         -0.0090   -0.0100    2.4540 ca        1 LL1     -0.139000
      6 C3         -0.6680   -0.0030    1.2160 ca        1 LL1     -0.055200
      7 N11        -2.0280   -0.0460    0.8640 na        1 LL1     -0.012100
      8 N12        -2.2000   -0.0070   -0.4590 nc        1 LL1     -0.494100
      9 C13        -0.9780    0.0020   -1.0550 cd        1 LL1      0.378500
     10 C14        -0.7670    0.0060   -2.4930 ca        1 LL1     -0.050900
     11 C15         0.3020    0.7200   -3.0540 ca        1 LL1     -0.228800
     12 C16         0.4720    0.6900   -4.4490 ca        1 LL1      0.389200
     13 N17        -0.3390    0.0140   -5.2860 nb        1 LL1     -0.662000
     14 C18        -1.3650   -0.6620   -4.7340 ca        1 LL1      0.389200
     15 C19        -1.6240   -0.6980   -3.3520 ca        1 LL1     -0.228800
     16 H5          2.0330   -0.0280   -0.9430 ha        1 LL1      0.142000
     17 H6          3.2010   -0.0250    1.2660 ha        1 LL1      0.136000
     18 H1          1.9310   -0.0130    3.3850 ha        1 LL1      0.135000
     19 H2         -0.5680   -0.0150    3.3980 ha        1 LL1      0.140000
     20 H15         0.9880    1.2980   -2.4210 ha        1 LL1      0.151500
     21 H16         1.3020    1.2400   -4.9260 h4        1 LL1      0.022600
     22 H18        -2.0170   -1.2060   -5.4410 h4        1 LL1      0.022600
     23 H19        -2.4790   -1.2660   -2.9610 ha        1 LL1      0.151500
     24 HN11       -2.7990    0.1160    1.4680 hn        1 LL1      0.324700
@<TRIPOS>BOND
     1    1    2 ar  
     2    1    6 ar  
     3    1    9 1   
     4    2    3 ar  
     5    2   16 1   
     6    3    4 ar  
     7    3   17 1   
     8    4    5 ar  
     9    4   18 1   
    10    5    6 ar  
    11    5   19 1   
    12    6    7 1   
    13    7    8 1   
    14    7   24 1   
    15    8    9 2   
    16    9   10 1   
    17   10   11 ar  
    18   10   15 ar  
    19   11   12 ar  
    20   11   20 1   
    21   12   13 ar  
    22   12   21 1   
    23   13   14 ar  
    24   14   15 ar  
    25   14   22 1   
    26   15   23 1   
@<TRIPOS>SUBSTRUCTURE
     1 LL1         1 TEMP              0 ****  ****    0 ROOT
