@<TRIPOS>MOLECULE
molecule
   24    26     1     0     0
SMALL
bcc


@<TRIPOS>ATOM
      1 C4           0.0000     0.0000     0.0000 ca         1 LL1      -0.235900
      2 C5           1.3970     0.0000     0.0000 ca         1 LL1      -0.057000
      3 C6           2.0730     0.0000     1.1850 ca         1 LL1      -0.167000
      4 C1           1.3850    -0.0000     2.3930 ca         1 LL1      -0.083000
      5 C2           0.0190    -0.0000     2.4180 ca         1 LL1      -0.156000
      6 C3          -0.6960    -0.0000     1.2230 ca         1 LL1      -0.019200
      7 N11         -2.0350    -0.0010     0.9200 na         1 LL1      -0.049100
      8 N12         -2.1930    -0.0010    -0.4700 nc         1 LL1      -0.486100
      9 C13         -1.0190     0.0050    -1.0550 cd         1 LL1       0.414500
     10 C14         -0.7690     0.0070    -2.5150 ca         1 LL1      -0.052900
     11 C15          0.3220     0.6960    -3.0560 ca         1 LL1      -0.234800
     12 C16          0.5190     0.6720    -4.4210 ca         1 LL1       0.418200
     13 N17         -0.3050     0.0100    -5.2110 nb         1 LL1      -0.689000
     14 C18         -1.3440    -0.6520    -4.7430 ca         1 LL1       0.418200
     15 C19         -1.6110    -0.6850    -3.3890 ca         1 LL1      -0.234800
     16 H5           1.9400     0.0000    -0.9370 ha         1 LL1       0.135000
     17 H6           3.1570     0.0000     1.1850 ha         1 LL1       0.134000
     18 H1           1.9380    -0.0000     3.3240 ha         1 LL1       0.134000
     19 H2          -0.5070    -0.0000     3.3650 ha         1 LL1       0.131000
     20 H15          1.0020     1.2410    -2.4120 ha         1 LL1       0.148000
     21 H16          1.3610     1.2020    -4.8490 h4         1 LL1       0.025600
     22 H18         -1.9930    -1.1840    -5.4280 h4         1 LL1       0.025600
     23 H19         -2.4670    -1.2320    -3.0110 ha         1 LL1       0.148000
     24 HN11        -2.7800    -0.0050     1.5880 hn         1 LL1       0.334700
@<TRIPOS>BOND
     1     6     1 ar
     2     9     1 1
     3     1     2 ar
     4     2     3 ar
     5     2    16 1
     6     4     3 ar
     7     3    17 1
     8     5     4 ar
     9     4    18 1
    10     6     5 ar
    11     5    19 1
    12     7     6 1
    13     7     8 1
    14     8     9 2
    15     9    10 1
    16    11    10 ar
    17    10    15 ar
    18    11    12 ar
    19    11    20 1
    20    12    13 ar
    21    12    21 1
    22    13    14 ar
    23    15    14 ar
    24    14    22 1
    25    15    23 1
    26     7    24 1
@<TRIPOS>SUBSTRUCTURE
     1 LL1         1 TEMP              0 ****  ****    0 ROOT
