@<TRIPOS>MOLECULE
LL2
   23    24     1     0     0
SMALL
bcc


@<TRIPOS>ATOM
      1 C8           0.0000     0.0000     0.0000 ca         1 LL2      -0.092500
      2 C11          1.3820     0.0000     0.0000 ca         1 LL2      -0.099000
      3 C13          2.0730     0.0000     1.1980 ca         1 LL2      -0.102000
      4 C12          1.3820    -0.0010     2.3950 ca         1 LL2      -0.099000
      5 C9          -0.0010    -0.0010     2.3940 ca         1 LL2      -0.092500
      6 C5          -0.6920    -0.0010     1.1970 ca         1 LL2      -0.095300
      7 C2          -2.1990    -0.0010     1.1970 c3         1 LL2       0.145200
      8 C1          -2.7010    -1.4220     1.1950 cc         1 LL2      -0.129700
      9 S4          -3.0450    -2.3960    -0.2320 ss         1 LL2      -0.347300
     10 C3          -2.9570    -2.1630     2.2740 cd         1 LL2       0.392200
     11 N6          -3.3900    -3.3830     2.0120 nd         1 LL2      -0.639000
     12 C7          -3.5080    -3.7080     0.7610 cc         1 LL2       0.553300
     13 N10         -3.9430    -4.9390     0.2990 nv         1 LL2      -0.505500
     14 H8          -0.5410    -0.0000    -0.9380 ha         1 LL2       0.105500
     15 H11          1.9240     0.0010    -0.9380 ha         1 LL2       0.102000
     16 H13          3.1560    -0.0000     1.1980 ha         1 LL2       0.102000
     17 H12          1.9230    -0.0010     3.3340 ha         1 LL2       0.102000
     18 H9          -0.5430    -0.0020     3.3320 ha         1 LL2       0.105500
     19 H2          -2.5600     0.5110     0.3130 hc         1 LL2       0.024700
     20 H2A         -2.5600     0.5080     2.0830 hc         1 LL2       0.024700
     21 H3          -2.8230    -1.7930     3.2830 h4         1 LL2      -0.000900
     22 HN10        -3.6480    -5.7790     0.7560 hn         1 LL2       0.273300
     23 HN1A        -4.5410    -4.9900    -0.5020 hn         1 LL2       0.273300
@<TRIPOS>BOND
     1     1     2 ar  
     2     1     6 ar  
     3     1    14 1   
     4     2     3 ar  
     5     2    15 1   
     6     3     4 ar  
     7     3    16 1   
     8     4     5 ar  
     9     4    17 1   
    10     5     6 ar  
    11     5    18 1   
    12     6     7 1   
    13     7     8 1   
    14     7    19 1   
    15     7    20 1   
    16     8     9 1   
    17     8    10 2   
    18     9    12 1   
    19    10    11 1   
    20    10    21 1   
    21    11    12 2   
    22    12    13 1   
    23    13    22 1   
    24    13    23 1   
@<TRIPOS>SUBSTRUCTURE
     1 LL2         1 TEMP              0 ****  ****    0 ROOT
