@<TRIPOS>MOLECULE
LL3
   44    47     1     0     0
SMALL
bcc


@<TRIPOS>ATOM
      1 C34         0.0930    0.0050    0.2720 ca        1 LL3     -0.111500
      2 C43         1.4740    0.0720    0.4510 ca        1 LL3     -0.128500
      3 C41         2.0140    0.0620    1.7360 ca        1 LL3     -0.123000
      4 C39         1.1710   -0.0190    2.8440 ca        1 LL3     -0.128500
      5 C37        -0.2110   -0.0860    2.6680 ca        1 LL3     -0.111500
      6 C36        -0.7580   -0.0740    1.3800 ca        1 LL3     -0.075300
      7 C01        -2.2330   -0.1110    1.1900 c3        1 LL3     -0.099100
      8 C04        -2.7870   -1.5250    1.1230 c         1 LL3      0.654100
      9 O06        -2.0780   -2.5240    1.3440 o         1 LL3     -0.580100
     10 N05        -4.1210   -1.7000    0.7300 n         1 LL3     -0.466800
     11 C18        -4.7050   -3.0260    0.7830 c3        1 LL3      0.082000
     12 C15        -5.7020   -3.2240    1.9260 c3        1 LL3     -0.106400
     13 C07        -5.0920   -0.6320    0.7760 c3        1 LL3      0.082000
     14 C10        -6.0980   -0.7500    1.9250 c3        1 LL3     -0.106400
     15 C13        -6.7570   -2.1240    1.9110 c3        1 LL3     -0.090000
     16 C21        -7.6670   -2.2710    3.0770 cc        1 LL3      0.509700
     17 N25        -8.9550   -2.5790    3.1830 nd        1 LL3     -0.690000
     18 O22        -7.1170   -2.0580    4.3780 os        1 LL3     -0.143100
     19 N23        -8.0630   -2.2350    5.2720 nc        1 LL3     -0.363300
     20 C24        -9.2010   -2.5540    4.5940 cd        1 LL3      0.623500
     21 C26       -10.4900   -2.8360    5.1630 cd        1 LL3     -0.192600
     22 C27       -10.7880   -2.8250    6.5210 cc        1 LL3     -0.109000
     23 C29       -12.1560   -3.1470    6.7530 cc        1 LL3     -0.165000
     24 C31       -12.8270   -3.3860    5.5680 cd        1 LL3     -0.182100
     25 S33       -11.8410   -3.2250    4.2450 ss        1 LL3      0.119200
     26 H34        -0.3280    0.0070   -0.7450 ha        1 LL3      0.131000
     27 H43         2.1370    0.1310   -0.4250 ha        1 LL3      0.132000
     28 H41         3.1040    0.1130    1.8770 ha        1 LL3      0.131000
     29 H39         1.5940   -0.0330    3.8590 ha        1 LL3      0.132000
     30 H37        -0.8720   -0.1590    3.5440 ha        1 LL3      0.131000
     31 H01        -2.7330    0.4180    2.0470 hc        1 LL3      0.069700
     32 H01A       -2.4960    0.4330    0.2410 hc        1 LL3      0.069700
     33 H18        -3.8860   -3.7950    0.8760 h1        1 LL3      0.062950
     34 H18A       -5.2390   -3.1930   -0.1970 h1        1 LL3      0.062950
     35 H15        -5.1680   -3.2200    2.9120 hc        1 LL3      0.066200
     36 H15A       -6.1910   -4.2240    1.8040 hc        1 LL3      0.066200
     37 H07        -4.5870    0.3690    0.8470 h1        1 LL3      0.062950
     38 H07A       -5.6610   -0.6590   -0.1990 h1        1 LL3      0.062950
     39 H10        -5.5880   -0.5880    2.9100 hc        1 LL3      0.066200
     40 H10A       -6.8740    0.0480    1.8030 hc        1 LL3      0.066200
     41 H13        -7.3730   -2.2230    0.9700 hc        1 LL3      0.086700
     42 H27       -10.0730   -2.6010    7.3160 ha        1 LL3      0.168000
     43 H29       -12.6000   -3.1950    7.7490 ha        1 LL3      0.158000
     44 H31       -13.8820   -3.6500    5.4920 h4        1 LL3      0.174000
@<TRIPOS>BOND
     1    1    2 ar  
     2    1    6 ar  
     3    1   26 1   
     4    2    3 ar  
     5    2   27 1   
     6    3    4 ar  
     7    3   28 1   
     8    4    5 ar  
     9    4   29 1   
    10    5    6 ar  
    11    5   30 1   
    12    6    7 1   
    13    7    8 1   
    14    7   31 1   
    15    7   32 1   
    16    8    9 2   
    17    8   10 1   
    18   10   11 1   
    19   10   13 1   
    20   11   12 1   
    21   11   33 1   
    22   11   34 1   
    23   12   15 1   
    24   12   35 1   
    25   12   36 1   
    26   13   14 1   
    27   13   37 1   
    28   13   38 1   
    29   14   15 1   
    30   14   39 1   
    31   14   40 1   
    32   15   16 1   
    33   15   41 1   
    34   16   17 2   
    35   16   18 1   
    36   17   20 1   
    37   18   19 1   
    38   19   20 2   
    39   20   21 1   
    40   21   22 2   
    41   21   25 1   
    42   22   23 1   
    43   22   42 1   
    44   23   24 2   
    45   23   43 1   
    46   24   25 1   
    47   24   44 1   
@<TRIPOS>SUBSTRUCTURE
     1 LL3         1 TEMP              0 ****  ****    0 ROOT
