@<TRIPOS>MOLECULE
LL4
   46    48     1     0     0
SMALL
bcc


@<TRIPOS>ATOM
      1 CAV         0.2350   -0.0030    0.2970 c3        1 LL4     -0.090600
      2 CAU         1.6820    0.0750   -0.1440 c3        1 LL4     -0.068700
      3 CAW         2.5800    0.3090    1.0540 c3        1 LL4     -0.090600
      4 CAT         2.1110   -1.1910   -0.8720 c3        1 LL4     -0.072400
      5 CAS         1.5400   -1.2580   -2.2730 c3        1 LL4     -0.144400
      6 CAQ         2.0190   -2.5060   -2.9910 c         1 LL4      0.655100
      7 OAR         2.8350   -3.2840   -2.4590 o         1 LL4     -0.599100
      8 NAN         1.4780   -2.8220   -4.2400 n         1 LL4     -0.465800
      9 CAO         2.0260   -3.9310   -4.9960 c3        1 LL4      0.083500
     10 CAP         2.8290   -3.5090   -6.2280 c3        1 LL4     -0.105400
     11 CAM         0.7540   -1.8640   -5.0410 c3        1 LL4      0.083500
     12 CAL         1.5210   -1.3720   -6.2730 c3        1 LL4     -0.105400
     13 CAK         2.0140   -2.5560   -7.0960 c3        1 LL4     -0.090000
     14 CAH         2.8310   -2.0820   -8.2430 cc        1 LL4      0.509700
     15 NAG         2.7400   -2.2710   -9.5550 nd        1 LL4     -0.690000
     16 OAI         3.9610   -1.2560   -7.9550 os        1 LL4     -0.142100
     17 NAJ         4.5540   -0.9430   -9.0840 nc        1 LL4     -0.363300
     18 CAF         3.8490   -1.5380  -10.0870 cd        1 LL4      0.623500
     19 CAE         4.1340   -1.4710  -11.4940 cd        1 LL4     -0.191600
     20 CAD         5.1920   -0.7750  -12.0670 cc        1 LL4     -0.110000
     21 CAC         5.1930   -0.9120  -13.4850 cc        1 LL4     -0.165000
     22 CAB         4.1430   -1.7000  -13.9180 cd        1 LL4     -0.182100
     23 SAA         3.2070   -2.2440  -12.6620 ss        1 LL4      0.119200
     24 HAV        -0.4400   -0.1270   -0.5830 hc        1 LL4      0.034700
     25 HAVA        0.0810   -0.8680    0.9860 hc        1 LL4      0.034700
     26 HAVB       -0.0550    0.9330    0.8350 hc        1 LL4      0.034700
     27 HAU         1.7940    0.9490   -0.8470 hc        1 LL4      0.042700
     28 HAW         2.2640    1.2310    1.5990 hc        1 LL4      0.034700
     29 HAWA        3.6400    0.4350    0.7280 hc        1 LL4      0.034700
     30 HAWB        2.5260   -0.5560    1.7570 hc        1 LL4      0.034700
     31 HAT         3.2320   -1.2280   -0.9340 hc        1 LL4      0.060700
     32 HATA        1.7880   -2.0940   -0.2920 hc        1 LL4      0.060700
     33 HAS         1.8640   -0.3570   -2.8580 hc        1 LL4      0.063700
     34 HASA        0.4180   -1.2620   -2.2250 hc        1 LL4      0.063700
     35 HAO         1.1580   -4.5700   -5.3300 h1        1 LL4      0.062450
     36 HAOA        2.6860   -4.5520   -4.3260 h1        1 LL4      0.062450
     37 HAP         3.7840   -3.0100   -5.9170 hc        1 LL4      0.065950
     38 HAPA        3.0940   -4.4270   -6.8120 hc        1 LL4      0.065950
     39 HAM         0.4550   -0.9720   -4.4270 h1        1 LL4      0.062450
     40 HAMA       -0.1930   -2.3710   -5.3920 h1        1 LL4      0.062450
     41 HAL         0.8360   -0.7360   -6.8890 hc        1 LL4      0.065950
     42 HALA        2.3940   -0.7400   -5.9630 hc        1 LL4      0.065950
     43 HAK         1.1210   -3.1120   -7.5060 hc        1 LL4      0.086700
     44 HAD         5.9340   -0.1960  -11.5120 ha        1 LL4      0.168000
     45 HAC         5.9390   -0.4460  -14.1320 ha        1 LL4      0.158000
     46 HAB         3.9380   -1.9470  -14.9590 h4        1 LL4      0.174000
@<TRIPOS>BOND
     1    1    2 1
     2    1   24 1
     3    1   25 1
     4    1   26 1
     5    2    3 1
     6    2    4 1
     7    2   27 1
     8    3   28 1
     9    3   29 1
    10    3   30 1
    11    4    5 1
    12    4   31 1
    13    4   32 1
    14    5    6 1
    15    5   33 1
    16    5   34 1
    17    6    7 2
    18    6    8 1
    19    8    9 1
    20    8   11 1
    21    9   10 1
    22    9   35 1
    23    9   36 1
    24   10   13 1
    25   10   37 1
    26   10   38 1
    27   11   12 1
    28   11   39 1
    29   11   40 1
    30   12   13 1
    31   12   41 1
    32   12   42 1
    33   13   14 1
    34   13   43 1
    35   14   15 2
    36   14   16 1
    37   15   18 1
    38   16   17 1
    39   17   18 2
    40   18   19 1
    41   19   20 2
    42   19   23 1
    43   20   21 1
    44   20   44 1
    45   21   22 2
    46   21   45 1
    47   22   23 1
    48   22   46 1
@<TRIPOS>SUBSTRUCTURE
     1 LL4         1 TEMP              0 ****  ****    0 ROOT
