@<TRIPOS>MOLECULE
LL5
   46    48     1     0     0
SMALL
bcc


@<TRIPOS>ATOM
      1 C22         0.5280    0.1910   -0.5050 c3        1 LL5     -0.118100
      2 C20         1.9180    0.1090    0.0960 c3        1 LL5     -0.080700
      3 C21         2.7610    1.2580   -0.4190 c3        1 LL5     -0.118100
      4 C19         1.8110    0.1080    1.6360 c3        1 LL5      0.047500
      5 N33         3.1480    0.3440    2.2890 n4        1 LL5     -0.838600
      6 C7          1.3160   -1.2880    2.1200 c         1 LL5      0.635100
      7 O32         2.2000   -2.1690    2.2300 o         1 LL5     -0.609100
      8 N1         -0.0060   -1.5370    2.3530 n         1 LL5     -0.416800
      9 C2         -0.3930   -2.7920    2.9940 c3        1 LL5      0.073500
     10 C3         -0.8920   -2.5950    4.4240 c3        1 LL5     -0.106400
     11 C6         -1.0540   -0.5350    2.3820 c3        1 LL5      0.073500
     12 C5         -1.5710   -0.2470    3.7920 c3        1 LL5     -0.106400
     13 C4         -1.9880   -1.5360    4.4930 c3        1 LL5     -0.086000
     14 C14        -2.3070   -1.2450    5.9150 cc        1 LL5      0.487700
     15 N23        -3.3760   -1.4650    6.6680 nd        1 LL5     -0.665000
     16 O26        -1.2910   -0.6040    6.6900 os        1 LL5     -0.164100
     17 N25        -1.7420   -0.4310    7.9140 nc        1 LL5     -0.365300
     18 C24        -3.0060   -0.9400    7.9530 cd        1 LL5      0.649500
     19 C27        -3.8860   -0.9730    9.0860 cd        1 LL5     -0.221600
     20 C31        -3.5790   -0.4780   10.3510 cc        1 LL5     -0.096000
     21 C30        -4.6630   -0.6630   11.2540 cc        1 LL5     -0.164000
     22 C29        -5.7340   -1.2850   10.6380 cd        1 LL5     -0.167100
     23 S28        -5.4340   -1.6240    9.0460 ss        1 LL5      0.133200
     24 H22        -0.1040   -0.6730   -0.1890 hc        1 LL5      0.061200
     25 H22A        0.6080    0.1660   -1.6210 hc        1 LL5      0.061200
     26 H22B        0.0220    1.1420   -0.2120 hc        1 LL5      0.061200
     27 H20         2.3910   -0.8660   -0.2200 hc        1 LL5      0.097700
     28 H21         3.8530    1.0740   -0.2670 hc        1 LL5      0.061200
     29 H21A        2.6030    1.3690   -1.5230 hc        1 LL5      0.061200
     30 H21B        2.4730    2.2230    0.0620 hc        1 LL5      0.061200
     31 H19         1.1430    0.9500    1.9770 hx        1 LL5      0.115700
     32 HN33        3.5970    1.1700    1.8840 hn        1 LL5      0.469800
     33 HN3A        3.7400   -0.4890    2.1340 hn        1 LL5      0.469800
     34 H2          0.4820   -3.5030    2.9970 h1        1 LL5      0.078700
     35 H2A        -1.2140   -3.2410    2.3640 h1        1 LL5      0.078700
     36 H3         -1.2930   -3.5770    4.7910 hc        1 LL5      0.076450
     37 H3A        -0.0430   -2.3030    5.0960 hc        1 LL5      0.076450
     38 H6         -1.9050   -0.9400    1.7560 h1        1 LL5      0.078700
     39 H6A        -0.7170    0.4230    1.9020 h1        1 LL5      0.078700
     40 H5         -2.4530    0.4410    3.7100 hc        1 LL5      0.076450
     41 H5A        -0.7860    0.2750    4.3990 hc        1 LL5      0.076450
     42 H4         -2.9170   -1.9390    3.9930 hc        1 LL5      0.098700
     43 H31        -2.6320   -0.0080   10.6270 ha        1 LL5      0.168000
     44 H30        -4.6340   -0.3470   12.3000 ha        1 LL5      0.166000
     45 H29        -6.6760   -1.5310   11.1310 h4        1 LL5      0.183000
     46 H333        3.0250    0.4720    3.2970 hn        1 LL5      0.469800
@<TRIPOS>BOND
     1    1    2 1   
     2    1   24 1   
     3    1   25 1   
     4    1   26 1   
     5    2    3 1   
     6    2    4 1   
     7    2   27 1   
     8    3   28 1   
     9    3   29 1   
    10    3   30 1   
    11    4    5 1   
    12    4    6 1   
    13    4   31 1   
    14    5   32 1   
    15    5   33 1   
    16    5   46 1   
    17    6    7 2   
    18    6    8 1   
    19    8    9 1   
    20    8   11 1   
    21    9   10 1   
    22    9   34 1   
    23    9   35 1   
    24   10   13 1   
    25   10   36 1   
    26   10   37 1   
    27   11   12 1   
    28   11   38 1   
    29   11   39 1   
    30   12   13 1   
    31   12   40 1   
    32   12   41 1   
    33   13   14 1   
    34   13   42 1   
    35   14   15 2   
    36   14   16 1   
    37   15   18 1   
    38   16   17 1   
    39   17   18 2   
    40   18   19 1   
    41   19   20 2   
    42   19   23 1   
    43   20   21 1   
    44   20   43 1   
    45   21   22 2   
    46   21   44 1   
    47   22   23 1   
    48   22   45 1   
@<TRIPOS>SUBSTRUCTURE
     1 LL5         1 TEMP              0 ****  ****    0 ROOT
