@<TRIPOS>MOLECULE
LL8
   32    33     1     0     0
SMALL
bcc


@<TRIPOS>ATOM
      1 C1         -0.1600   -0.2790    0.0800 ca        1 LL8     -0.071000
      2 O1         -4.9560   -0.5760    1.9050 o         1 LL8     -0.540100
      3 C2          1.2070   -0.2170   -0.0420 ca        1 LL8     -0.189000
      4 O2         -6.8220    1.8620    3.9960 o         1 LL8     -0.526100
      5 C3          2.0030    0.0070    1.1130 ca        1 LL8      0.139100
      6 O3          3.3810    0.0850    1.0890 os        1 LL8     -0.324900
      7 C4          1.4220    0.1650    2.3630 ca        1 LL8     -0.169000
      8 C5          0.0140    0.1010    2.4930 ca        1 LL8      0.018000
      9 C6         -0.7890   -0.1220    1.3430 ca        1 LL8     -0.087000
     10 C7         -2.2000   -0.1850    1.4830 ca        1 LL8     -0.031000
     11 C8         -2.7980   -0.0220    2.7170 ca        1 LL8     -0.191600
     12 C9         -1.9890    0.1970    3.8650 ca        1 LL8     -0.093000
     13 C10        -0.6240    0.2560    3.7570 ca        1 LL8     -0.133000
     14 C11        -4.2710   -0.0880    2.8130 c         1 LL8      0.596700
     15 C12        -4.8810    0.4730    4.0680 c3        1 LL8     -0.291400
     16 C13        -6.3670    0.7140    3.9730 c         1 LL8      0.583100
     17 C14        -7.2310   -0.4980    3.8830 c3        1 LL8     -0.205100
     18 C31         4.0050   -0.0660   -0.1810 c3        1 LL8      0.112700
     19 H1         -0.7910   -0.4520   -0.8060 ha        1 LL8      0.140000
     20 H2          1.6810   -0.3400   -1.0260 ha        1 LL8      0.142000
     21 H4          2.0490    0.3380    3.2480 ha        1 LL8      0.154000
     22 H7         -2.8210   -0.3680    0.5900 ha        1 LL8      0.155000
     23 H9         -2.4660    0.3150    4.8510 ha        1 LL8      0.133000
     24 H10         0.0040    0.4230    4.6440 ha        1 LL8      0.140000
     25 H12        -4.3700    1.4430    4.3170 hc        1 LL8      0.091700
     26 H12A       -4.6890   -0.2500    4.9060 hc        1 LL8      0.091700
     27 H14        -8.3120   -0.2170    3.9100 hc        1 LL8      0.071700
     28 H14A       -7.0120   -1.1910    4.7310 hc        1 LL8      0.071700
     29 H14B       -7.0140   -1.0280    2.9200 hc        1 LL8      0.071700
     30 H31         3.7880   -1.0740   -0.6110 h1        1 LL8      0.046700
     31 H31A        3.6750    0.7400   -0.8810 h1        1 LL8      0.046700
     32 H31B        5.0950    0.0370    0.0530 h1        1 LL8      0.046700
@<TRIPOS>BOND
     1    1    3 ar  
     2    1    9 ar  
     3    1   19 1   
     4    2   14 2   
     5    3    5 ar  
     6    3   20 1   
     7    4   16 2   
     8    5    6 1   
     9    5    7 ar  
    10    6   18 1   
    11    7    8 ar  
    12    7   21 1   
    13    8    9 ar  
    14    8   13 ar  
    15    9   10 ar  
    16   10   11 ar  
    17   10   22 1   
    18   11   12 ar  
    19   11   14 1   
    20   12   13 ar  
    21   12   23 1   
    22   13   24 1   
    23   14   15 1   
    24   15   16 1   
    25   15   25 1   
    26   15   26 1   
    27   16   17 1   
    28   17   27 1   
    29   17   28 1   
    30   17   29 1   
    31   18   30 1   
    32   18   31 1   
    33   18   32 1   
@<TRIPOS>SUBSTRUCTURE
     1 LL8         1 TEMP              0 ****  ****    0 ROOT
