@<TRIPOS>MOLECULE
molecule
   32    33     1     0     0
SMALL
bcc


@<TRIPOS>ATOM
      1 C1           0.0000     0.0000     0.0000 ca         1 LL8      -0.065000
      2 O1          -4.8630     0.0160     1.4700 o          1 LL8      -0.485100
      3 C2           1.3590     0.0000     0.0000 ca         1 LL8      -0.209000
      4 O2          -6.8710     0.0210     2.4610 o          1 LL8      -0.477100
      5 C3           2.0780     0.0000     1.2000 ca         1 LL8       0.154100
      6 O3           3.4350     0.0000     1.1700 os         1 LL8      -0.326900
      7 C4           1.4240     0.0010     2.4120 ca         1 LL8      -0.173000
      8 C5           0.0220     0.0010     2.4420 ca         1 LL8       0.022000
      9 C6          -0.7000     0.0000     1.2210 ca         1 LL8      -0.088000
     10 C7          -2.1010     0.0050     1.2470 ca         1 LL8      -0.028000
     11 C8          -2.7620     0.0050     2.4690 ca         1 LL8      -0.195600
     12 C9          -2.0320     0.0000     3.6750 ca         1 LL8      -0.093000
     13 C10         -0.6760     0.0010     3.6660 ca         1 LL8      -0.135000
     14 C11         -4.2310     0.0100     2.5050 c          1 LL8       0.569700
     15 C12         -4.9530     0.0100     3.8280 c3         1 LL8      -0.282400
     16 C13         -6.4400     0.0170     3.5890 c          1 LL8       0.551100
     17 C14         -7.3920     0.0180     4.7580 c3         1 LL8      -0.192100
     18 C31          4.0560     0.0000    -0.1170 c3         1 LL8       0.127700
     19 H1          -0.5430     0.0000    -0.9370 ha         1 LL8       0.139000
     20 H2           1.8930    -0.0000    -0.9420 ha         1 LL8       0.137000
     21 H4           1.9890     0.0010     3.3360 ha         1 LL8       0.150000
     22 H7          -2.6650     0.0090     0.3220 ha         1 LL8       0.157000
     23 H9          -2.5610     0.0000     4.6200 ha         1 LL8       0.128000
     24 H10         -0.1290    -0.0030     4.6010 ha         1 LL8       0.137000
     25 H12         -4.6810    -0.8760     4.3880 hc         1 LL8       0.084700
     26 H12A        -4.6740     0.8930     4.3920 hc         1 LL8       0.084700
     27 H14         -8.0130     0.9040     4.7170 hc         1 LL8       0.059367
     28 H14A        -8.0180    -0.8650     4.7150 hc         1 LL8       0.059367
     29 H14B        -6.8270     0.0150     5.6830 hc         1 LL8       0.059367
     30 H31          3.7530    -0.8840    -0.6640 h1         1 LL8       0.043367
     31 H31A         5.1330     0.0000     0.0020 h1         1 LL8       0.043367
     32 H31B         3.7530     0.8850    -0.6640 h1         1 LL8       0.043367
@<TRIPOS>BOND
     1     3     1 ar
     2     1     9 ar
     3     1    19 1
     4    14     2 2
     5     3     5 ar
     6     3    20 1
     7     4    16 2
     8     6     5 1
     9     5     7 ar
    10     6    18 1
    11     7     8 ar
    12     7    21 1
    13     9     8 ar
    14     8    13 ar
    15     9    10 ar
    16    10    11 ar
    17    10    22 1
    18    11    14 1
    19    11    12 ar
    20    13    12 ar
    21    12    23 1
    22    13    24 1
    23    15    14 1
    24    16    15 1
    25    15    25 1
    26    15    26 1
    27    16    17 1
    28    17    27 1
    29    17    28 1
    30    17    29 1
    31    18    30 1
    32    18    31 1
    33    18    32 1
@<TRIPOS>SUBSTRUCTURE
     1 LL8         1 TEMP              0 ****  ****    0 ROOT
