@<TRIPOS>MOLECULE
molecule
   30    30     1     0     0
SMALL
bcc


@<TRIPOS>ATOM
      1 OAD          0.0000     0.0000     0.0000 o          1 LL9      -0.707533
      2 SAQ          1.4200     0.0000     0.0000 s6         1 LL9       1.255800
      3 OAB          1.7960     0.0000     1.4740 o          1 LL9      -0.707533
      4 OAC          2.1530    -1.0880    -0.5480 o          1 LL9      -0.707533
      5 CAJ          2.0580     1.5770    -0.6290 c3         1 LL9      -0.256600
      6 CAI          1.7380     1.6980    -2.1210 c3         1 LL9       0.179800
      7 NAL          2.2540     2.9750    -2.6300 n7         1 LL9      -0.813200
      8 CAK          1.9660     3.1260    -4.0630 c3         1 LL9       0.202100
      9 CAN          2.5090     4.4450    -4.5490 ca         1 LL9      -0.088300
     10 CAH          3.8000     4.5230    -5.0360 ca         1 LL9      -0.086000
     11 CAO          4.2990     5.7320    -5.4820 ca         1 LL9      -0.002600
     12 Cl           5.9210     5.8290    -6.0960 cl         1 LL9      -0.111400
     13 CAP          3.5030     6.8690    -5.4400 ca         1 LL9       0.134100
     14 OAM          3.9920     8.0590    -5.8790 os         1 LL9      -0.321900
     15 CAA          3.1170     9.1860    -5.8050 c3         1 LL9       0.129700
     16 CAG          2.2080     6.7880    -4.9500 ca         1 LL9      -0.228000
     17 CAF          1.7120     5.5760    -4.5110 ca         1 LL9      -0.063000
     18 H1           3.1310     1.6160    -0.4860 h1         1 LL9       0.079700
     19 H2           1.5920     2.3950    -0.0930 h1         1 LL9       0.079700
     20 H3           0.6650     1.6580    -2.2650 h1         1 LL9       0.033700
     21 H4           2.2050     0.8800    -2.6570 h1         1 LL9       0.033700
     22 H5           3.2430     3.0190    -2.4820 hn         1 LL9       0.351800
     23 H7           2.4340     2.3180    -4.6120 h1         1 LL9       0.035700
     24 H8           0.8940     3.0960    -4.2200 h1         1 LL9       0.035700
     25 H9           4.4160     3.6330    -5.0820 ha         1 LL9       0.150000
     26 H10          3.6280    10.0660    -6.1780 h1         1 LL9       0.039033
     27 H11          2.2360     8.9990    -6.4070 h1         1 LL9       0.039033
     28 H12          2.8230     9.3490    -4.7750 h1         1 LL9       0.039033
     29 H13          1.5790     7.6690    -4.9350 ha         1 LL9       0.134000
     30 H14          0.6690     5.6650    -4.2320 ha         1 LL9       0.141000
@<TRIPOS>BOND
     1    15    14 1
     2    14    13 1
     3    12    11 1
     4    13    11 ar
     5    13    16 ar
     6    11    10 ar
     7    16    17 ar
     8    10     9 ar
     9    17     9 ar
    10     9     8 1
    11     8     7 1
    12     7     6 1
    13     6     5 1
    14     5     2 1
    15     1     2 1
    16     2     4 1
    17     2     3 1
    18     5    18 1
    19     5    19 1
    20     6    20 1
    21     6    21 1
    22     7    22 1
    23     8    23 1
    24     8    24 1
    25    10    25 1
    26    15    26 1
    27    15    27 1
    28    15    28 1
    29    16    29 1
    30    17    30 1
@<TRIPOS>SUBSTRUCTURE
     1 LL9         1 TEMP              0 ****  ****    0 ROOT
