@<TRIPOS>MOLECULE
LL9
   30    30     1     0     0
SMALL
bcc


@<TRIPOS>ATOM
      1 OAD          0.0000     0.0000     0.0000 o          1 LL9      -0.659867
      2 SAQ          1.4200     0.0000     0.0000 s6         1 LL9       0.958800
      3 OAB          1.7960     0.0000     1.4740 o          1 LL9      -0.659867
      4 OAC          2.1530    -1.0880    -0.5480 o          1 LL9      -0.659867
      5 CAJ          2.0580     1.5770    -0.6290 c3         1 LL9      -0.056600
      6 CAI          1.7380     1.6980    -2.1210 c3         1 LL9       0.173800
      7 NAL          2.2540     2.9750    -2.6300 n7         1 LL9      -0.596200
      8 CAK          1.9660     3.1260    -4.0630 c3         1 LL9       0.203100
      9 CAN          2.5090     4.4450    -4.5490 ca         1 LL9      -0.096300
     10 CAH          3.8000     4.5230    -5.0360 ca         1 LL9      -0.059000
     11 CAO          4.2990     5.7320    -5.4820 ca         1 LL9      -0.073600
     12 Cl           5.9210     5.8290    -6.0960 cl         1 LL9      -0.029400
     13 CAP          3.5030     6.8690    -5.4400 ca         1 LL9       0.141100
     14 OAM          3.9920     8.0590    -5.8790 os         1 LL9      -0.303900
     15 CAA          3.1170     9.1860    -5.8050 c3         1 LL9       0.244700
     16 CAG          2.2080     6.7880    -4.9500 ca         1 LL9      -0.221000
     17 CAF          1.7120     5.5760    -4.5110 ca         1 LL9      -0.028000
     18 H1           3.1310     1.6160    -0.4860 h1         1 LL9       0.052200
     19 H2           1.5920     2.3950    -0.0930 h1         1 LL9       0.052200
     20 H3           0.6650     1.6580    -2.2650 h1         1 LL9       0.010200
     21 H4           2.2050     0.8800    -2.6570 h1         1 LL9       0.010200
     22 H5           3.2430     3.0190    -2.4820 hn         1 LL9       0.251800
     23 H7           2.4340     2.3180    -4.6120 h1         1 LL9       0.007200
     24 H8           0.8940     3.0960    -4.2200 h1         1 LL9       0.007200
     25 H9           4.4160     3.6330    -5.0820 ha         1 LL9       0.118000
     26 H10          3.6280    10.0660    -6.1780 h1         1 LL9      -0.004633
     27 H11          2.2360     8.9990    -6.4070 h1         1 LL9      -0.004633
     28 H12          2.8230     9.3490    -4.7750 h1         1 LL9      -0.004633
     29 H13          1.5790     7.6690    -4.9350 ha         1 LL9       0.118000
     30 H14          0.6690     5.6650    -4.2320 ha         1 LL9       0.109000
@<TRIPOS>BOND
     1     1     2 1   
     2     2     3 1   
     3     2     4 1   
     4     2     5 1   
     5     5     6 1   
     6     5    18 1   
     7     5    19 1   
     8     6     7 1   
     9     6    20 1   
    10     6    21 1   
    11     7     8 1   
    12     7    22 1   
    13     8     9 1   
    14     8    23 1   
    15     8    24 1   
    16     9    10 ar  
    17     9    17 ar  
    18    10    11 ar  
    19    10    25 1   
    20    11    12 1   
    21    11    13 ar  
    22    13    14 1   
    23    13    16 ar  
    24    14    15 1   
    25    15    26 1   
    26    15    27 1   
    27    15    28 1   
    28    16    17 ar  
    29    16    29 1   
    30    17    30 1   
@<TRIPOS>SUBSTRUCTURE
     1 LL9         1 TEMP              0 ****  ****    0 ROOT
