@<TRIPOS>MOLECULE
LLA
   21    21     1     0     0
SMALL
bcc


@<TRIPOS>ATOM
      1 O           0.3790   -0.4140    0.4300 o         1 LLA     -0.833800
      2 CA          1.9050   -0.1180   -1.4010 c3        1 LLA      0.019100
      3 CB          2.5150    1.2600   -1.6670 c3        1 LLA     -0.058100
      4 CG          3.4460    1.2750   -2.8250 ca        1 LLA     -0.032300
      5 CD1         3.1230    1.9560   -4.0050 ca        1 LLA     -0.132500
      6 CD2         4.6790    0.6090   -2.7430 ca        1 LLA     -0.132500
      7 CE1         4.0140    1.9780   -5.0770 ca        1 LLA     -0.139000
      8 CE2         5.5670    0.6320   -3.8150 ca        1 LLA     -0.139000
      9 CZ          5.2390    1.3180   -4.9840 ca        1 LLA     -0.160000
     10 C           1.5950   -0.2700    0.1140 c         1 LLA      0.892600
     11 OA          0.7450   -0.2880   -2.1960 oh        1 LLA     -0.643800
     12 OXT         2.5590   -0.2430    0.9240 o         1 LLA     -0.833800
     13 HA          2.6240   -0.9240   -1.7130 h1        1 LLA      0.041700
     14 H1B         1.6850    1.9960   -1.8270 hc        1 LLA      0.059700
     15 H2B         3.0800    1.5620   -0.7420 hc        1 LLA      0.059700
     16 HD1         2.1530    2.4680   -4.0860 ha        1 LLA      0.138500
     17 HD2         4.9300    0.0650   -1.8190 ha        1 LLA      0.138500
     18 HE1         3.7480    2.5140   -5.9990 ha        1 LLA      0.112500
     19 HE2         6.5290    0.1060   -3.7400 ha        1 LLA      0.112500
     20 HZ          5.9400    1.3350   -5.8290 ha        1 LLA      0.109000
     21 HOA        -0.0150   -0.2890   -1.5890 ho        1 LLA      0.424000
@<TRIPOS>BOND
     1    1   10 1   
     2    2    3 1   
     3    2   10 1   
     4    2   11 1   
     5    2   13 1   
     6    3    4 1   
     7    3   14 1   
     8    3   15 1   
     9    4    5 ar  
    10    4    6 ar  
    11    5    7 ar  
    12    5   16 1   
    13    6    8 ar  
    14    6   17 1   
    15    7    9 ar  
    16    7   18 1   
    17    8    9 ar  
    18    8   19 1   
    19    9   20 1   
    20   10   12 1   
    21   11   21 1   
@<TRIPOS>SUBSTRUCTURE
     1 LLA         1 TEMP              0 ****  ****    0 ROOT
