@<TRIPOS>MOLECULE
molecule
   21    21     1     0     0
SMALL
bcc


@<TRIPOS>ATOM
      1 O            0.0000     0.0000     0.0000 o          1 LLA      -0.840800
      2 CA           1.9630    -0.0030    -1.3040 c3         1 LLA       0.044100
      3 CB           2.8420     1.2450    -1.3860 c3         1 LLA      -0.020100
      4 CG           3.5960     1.2430    -2.6900 ca         1 LLA      -0.052300
      5 CD1          3.0460     1.8390    -3.8080 ca         1 LLA      -0.122000
      6 CD2          4.8410     0.6480    -2.7670 ca         1 LLA      -0.122000
      7 CE1          3.7380     1.8380    -5.0050 ca         1 LLA      -0.141500
      8 CE2          5.5320     0.6430    -3.9650 ca         1 LLA      -0.141500
      9 CZ           4.9820     1.2380    -5.0820 ca         1 LLA      -0.156000
     10 C            1.2070     0.0000     0.0000 c          1 LLA       0.868600
     11 OA           1.0350    -0.0040    -2.3910 oh         1 LLA      -0.617800
     12 OXT          1.8770     0.0000     1.1630 o          1 LLA      -0.840800
     13 HA           2.5850    -0.8880    -1.3590 h1         1 LLA       0.017700
     14 H1B          2.2200     2.1300    -1.3300 hc         1 LLA       0.064700
     15 H2B          3.5460     1.2450    -0.5620 hc         1 LLA       0.064700
     16 HD1          2.0720     2.3090    -3.7470 ha         1 LLA       0.136500
     17 HD2          5.2730     0.1810    -1.8910 ha         1 LLA       0.136500
     18 HE1          3.3070     2.3050    -5.8820 ha         1 LLA       0.111500
     19 HE2          6.5080     0.1750    -4.0260 ha         1 LLA       0.111500
     20 HZ           5.5240     1.2350    -6.0200 ha         1 LLA       0.108000
     21 HOA          0.7200    -0.8810    -2.5350 ho         1 LLA       0.390000
@<TRIPOS>BOND
     1     1    10 1
     2     2     3 1
     3     2    10 1
     4     2    11 1
     5     2    13 1
     6     3     4 1
     7     3    14 1
     8     3    15 1
     9     4     5 ar
    10     4     6 ar
    11     5     7 ar
    12     5    16 1
    13     6     8 ar
    14     6    17 1
    15     7     9 ar
    16     7    18 1
    17     8     9 ar
    18     8    19 1
    19     9    20 1
    20    10    12 1
    21    11    21 1
@<TRIPOS>SUBSTRUCTURE
     1 LLA         1 TEMP              0 ****  ****    0 ROOT
