@<TRIPOS>MOLECULE
LLB
   64    68     1     0     0
SMALL
bcc


@<TRIPOS>ATOM
      1 C4           0.0000     0.0000     0.0000 ca         1 LLB      -0.065800
      2 C5           1.4090     0.0000     0.0000 ca         1 LLB      -0.041000
      3 C6           2.1050     0.0000     1.1830 ca         1 LLB      -0.131000
      4 C7           5.3700    -8.5900    -6.3940 c3         1 LLB       0.008900
      5 C20         -0.1420    -3.6640    -4.6610 ca         1 LLB       0.188100
      6 C21          0.0790    -2.4600    -5.3180 ca         1 LLB      -0.200000
      7 C22         -0.0230    -1.2700    -4.6310 ca         1 LLB       0.000500
      8 C28         -0.3860    -6.0270    -4.6350 c3         1 LLB       0.197400
      9 O17         -0.1700     1.0480    -3.0800 o          1 LLB      -0.563100
     10 C12         -0.9150    -0.0010    -1.1430 cc         1 LLB      -0.147400
     11 C11         -2.2360     0.0000    -0.7890 cd         1 LLB       0.106400
     12 C14         -3.3580    -0.0010    -1.7460 ca         1 LLB      -0.057800
     13 C54         -4.4140    -0.9030    -1.5870 ca         1 LLB      -0.065000
     14 C53         -5.4600    -0.9000    -2.4830 ca         1 LLB      -0.139000
     15 C52         -5.4660    -0.0030    -3.5440 ca         1 LLB       0.134100
     16 O59         -6.4990    -0.0040    -4.4260 oh         1 LLB      -0.501100
     17 C51         -4.4190     0.8950    -3.7060 ca         1 LLB      -0.139000
     18 C50         -3.3710     0.9030    -2.8120 ca         1 LLB      -0.065000
     19 S10         -2.4170     0.0010     0.9540 ss         1 LLB      -0.194500
     20 C3          -0.6790    -0.0060     1.2170 ca         1 LLB       0.040900
     21 C2           0.0460    -0.0090     2.4140 ca         1 LLB      -0.101000
     22 C1           1.4250     0.0010     2.3960 ca         1 LLB       0.134100
     23 O13          2.1200    -0.0020     3.5650 oh         1 LLB      -0.499100
     24 C16         -0.3490    -1.2750    -3.2730 ca         1 LLB      -0.239600
     25 C19         -0.4710    -3.6730    -3.3110 ca         1 LLB      -0.200000
     26 C18         -0.5700    -2.4880    -2.6160 ca         1 LLB       0.000500
     27 C29         -0.1160    -7.2430    -5.5240 c3         1 LLB       0.146800
     28 N61          1.3260    -7.3490    -5.7840 n3         1 LLB      -0.529600
     29 C66          2.0350    -7.8710    -4.6100 c3         1 LLB       0.152800
     30 C65          3.5440    -7.8320    -4.8640 c3         1 LLB      -0.022900
     31 C64          3.8720    -8.6750    -6.0990 c3         1 LLB      -0.055700
     32 C63          3.0820    -8.1410    -7.2970 c3         1 LLB      -0.022900
     33 C62          1.5880    -8.1710    -6.9720 c3         1 LLB       0.152800
     34 H5           1.9470    -0.0010    -0.9400 ha         1 LLB       0.113000
     35 H6           3.1880     0.0070     1.1710 ha         1 LLB       0.118000
     36 H72          5.9280    -8.9670    -5.5450 hc         1 LLB       0.002700
     37 H73          5.6450    -7.5590    -6.5770 hc         1 LLB       0.002700
     38 H21          0.3340    -2.4570    -6.3710 ha         1 LLB       0.122500
     39 H22          0.1500    -0.3310    -5.1440 ha         1 LLB       0.116500
     40 H281        -1.4370    -5.9990    -4.3720 h1         1 LLB       0.005700
     41 H282         0.2100    -6.0990    -3.7330 h1         1 LLB       0.005700
     42 H54         -4.4100    -1.6030    -0.7600 ha         1 LLB       0.121500
     43 H53         -6.2790    -1.5980    -2.3610 ha         1 LLB       0.117000
     44 HO59        -7.1690     0.5880    -4.1260 ho         1 LLB       0.404000
     45 H51         -4.4290     1.5950    -4.5340 ha         1 LLB       0.117000
     46 H50         -2.5550     1.6040    -2.9390 ha         1 LLB       0.121500
     47 H2          -0.4800    -0.0080     3.3610 ha         1 LLB       0.122000
     48 HO13         2.2450     0.8850     3.8590 ho         1 LLB       0.406000
     49 H19         -0.6430    -4.6140    -2.8020 ha         1 LLB       0.122500
     50 H18         -0.8270    -2.4960    -1.5640 ha         1 LLB       0.116500
     51 H291        -0.4590    -8.1400    -5.0230 h1         1 LLB       0.018700
     52 H292        -0.6450    -7.1290    -6.4620 h1         1 LLB       0.018700
     53 H661         1.8000    -7.2610    -3.7460 h1         1 LLB       0.007950
     54 H662         1.7280    -8.8940    -4.4300 h1         1 LLB       0.007950
     55 H651         4.0650    -8.2350    -4.0030 hc         1 LLB       0.022700
     56 H652         3.8540    -6.8080    -5.0340 hc         1 LLB       0.022700
     57 H64          3.5920    -9.7060    -5.9150 hc         1 LLB       0.023700
     58 H631         3.2760    -8.7630    -8.1620 hc         1 LLB       0.022700
     59 H632         3.3860    -7.1210    -7.5030 hc         1 LLB       0.022700
     60 H621         1.2830    -9.1920    -6.7770 h1         1 LLB       0.007950
     61 H622         1.0290    -7.7770    -7.8120 h1         1 LLB       0.007950
     62 C15         -0.4590    -0.0020    -2.5330 c          1 LLB       0.677900
     63 O27         -0.0400    -4.8340    -5.3410 os         1 LLB      -0.283900
     64 H71          5.6000    -9.1860    -7.2690 hc         1 LLB       0.002700
@<TRIPOS>BOND
     1     1     2 ar  
     2     1    10 1   
     3     1    20 ar  
     4     2     3 ar  
     5     2    34 1   
     6     3    22 ar  
     7     3    35 1   
     8     4    31 1   
     9     4    36 1   
    10     4    37 1   
    11     4    64 1   
    12     5     6 ar  
    13     5    25 ar  
    14     5    63 1   
    15     6     7 ar  
    16     6    38 1   
    17     7    24 ar  
    18     7    39 1   
    19     8    27 1   
    20     8    40 1   
    21     8    41 1   
    22     8    63 1   
    23     9    62 2   
    24    10    11 2   
    25    10    62 1   
    26    11    12 1   
    27    11    19 1   
    28    12    13 ar  
    29    12    18 ar  
    30    13    14 ar  
    31    13    42 1   
    32    14    15 ar  
    33    14    43 1   
    34    15    16 1   
    35    15    17 ar  
    36    16    44 1   
    37    17    18 ar  
    38    17    45 1   
    39    18    46 1   
    40    19    20 1   
    41    20    21 ar  
    42    21    22 ar  
    43    21    47 1   
    44    22    23 1   
    45    23    48 1   
    46    24    26 ar  
    47    24    62 1   
    48    25    26 ar  
    49    25    49 1   
    50    26    50 1   
    51    27    28 1   
    52    27    51 1   
    53    27    52 1   
    54    28    29 1   
    55    28    33 1   
    56    29    30 1   
    57    29    53 1   
    58    29    54 1   
    59    30    31 1   
    60    30    55 1   
    61    30    56 1   
    62    31    32 1   
    63    31    57 1   
    64    32    33 1   
    65    32    58 1   
    66    32    59 1   
    67    33    60 1   
    68    33    61 1   
@<TRIPOS>SUBSTRUCTURE
     1 LLB         1 TEMP              0 ****  ****    0 ROOT
