@<TRIPOS>MOLECULE
LLC
   58    62     1     0     0
SMALL
bcc


@<TRIPOS>ATOM
      1 C4           0.0000     0.0000     0.0000 ca         1 LLC      -0.064000
      2 C5           1.3780     0.0000     0.0000 ca         1 LLC      -0.140000
      3 C6           2.0740     0.0000     1.2020 ca         1 LLC       0.135100
      4 C8           1.3860    -0.0000     2.4100 ca         1 LLC      -0.140000
      5 C13         -5.4530     1.3340     2.3910 ca         1 LLC      -0.044000
      6 C15         -7.0230    -0.0360     1.2090 ca         1 LLC       0.133100
      7 C20         -2.1750     3.2470     2.3580 ca         1 LLC      -0.238600
      8 C21         -1.5450     4.1930     3.1700 ca         1 LLC      -0.001000
      9 C22         -1.3490     5.4750     2.7060 ca         1 LLC      -0.200000
     10 C26         -1.5390     8.7890    -0.7410 c3         1 LLC       0.148800
     11 C28          0.3310    10.3330    -0.7930 c3         1 LLC       0.149800
     12 O19         -2.0960     1.5830     3.9990 o          1 LLC      -0.562100
     13 C33         -2.6090     3.6070     1.0800 ca         1 LLC      -0.001000
     14 C32         -2.4100     4.8920     0.6240 ca         1 LLC      -0.200000
     15 C23         -1.7790     5.8290     1.4330 ca         1 LLC       0.187100
     16 O24         -1.5860     7.0930     0.9800 os         1 LLC      -0.283900
     17 C25         -1.9370     7.3560    -0.3800 c3         1 LLC       0.197400
     18 N27         -0.0770     8.9200    -0.6850 n3         1 LLC      -0.537600
     19 C31          0.5650     8.1600    -1.7780 c3         1 LLC       0.149800
     20 C30          1.8170     8.9920    -2.1550 c3         1 LLC      -0.035900
     21 C29          1.2900    10.4420    -1.9960 c3         1 LLC      -0.035900
     22 C1          -2.9440     0.8530     1.9610 cc         1 LLC      -0.153400
     23 C12         -4.3820     0.6460     1.7840 ca         1 LLC      -0.066800
     24 C14         -6.7500     0.9940     2.1040 ca         1 LLC      -0.131000
     25 O17         -8.3110    -0.3660     0.9240 oh         1 LLC      -0.499100
     26 C16         -5.9880    -0.7140     0.5980 ca         1 LLC      -0.100000
     27 C11         -4.6590    -0.3810     0.8850 ca         1 LLC       0.040900
     28 S10         -3.1670    -1.0800     0.2690 ss         1 LLC      -0.190500
     29 C2          -2.1710     0.0050     1.2160 cd         1 LLC       0.112400
     30 C3          -0.6970     0.0060     1.2110 ca         1 LLC      -0.061800
     31 C9           0.0090    -0.0000     2.4190 ca         1 LLC      -0.064000
     32 O7           3.4330    -0.0000     1.1980 oh         1 LLC      -0.501100
     33 H4          -0.5420    -0.0000    -0.9380 ha         1 LLC       0.123500
     34 H5           1.9190    -0.0020    -0.9390 ha         1 LLC       0.117000
     35 H8           1.9330    -0.0030     3.3440 ha         1 LLC       0.117000
     36 H13         -5.2500     2.1370     3.0880 ha         1 LLC       0.112000
     37 H21         -1.2090     3.9180     4.1630 ha         1 LLC       0.117000
     38 H22         -0.8580     6.2080     3.3350 ha         1 LLC       0.123000
     39 H261        -1.9910     9.4780    -0.0380 h1         1 LLC       0.019200
     40 H262        -1.8840     9.0180    -1.7420 h1         1 LLC       0.019200
     41 H282         0.8410    10.6390     0.1130 h1         1 LLC       0.015200
     42 H33         -3.1000     2.8770     0.4480 ha         1 LLC       0.117000
     43 H32         -2.7460     5.1720    -0.3680 ha         1 LLC       0.123000
     44 H251        -1.4160     6.6620    -1.0280 h1         1 LLC       0.005200
     45 H252        -3.0060     7.2360    -0.5060 h1         1 LLC       0.005200
     46 H311         0.8580     7.1770    -1.4310 h1         1 LLC       0.015200
     47 H312        -0.1050     8.0840    -2.6260 h1         1 LLC       0.015200
     48 H301         2.6290     8.7990    -1.4650 hc         1 LLC       0.021200
     49 H302         2.1130     8.7990    -3.1790 hc         1 LLC       0.021200
     50 H291         0.7540    10.7520    -2.8850 hc         1 LLC       0.021200
     51 H292         2.1040    11.1210    -1.7750 hc         1 LLC       0.021200
     52 H14         -7.5650     1.5300     2.5750 ha         1 LLC       0.118000
     53 HO17        -8.5940    -1.0550     1.5010 ho         1 LLC       0.406000
     54 H16         -6.2040    -1.5150    -0.0980 ha         1 LLC       0.122000
     55 H9          -0.5270     0.0020     3.3600 ha         1 LLC       0.123500
     56 HO7          3.7470     0.8890     1.1970 ho         1 LLC       0.404000
     57 C18         -2.3860     1.8710     2.8510 c          1 LLC       0.678900
     58 H281        -0.5400    10.9560    -0.9600 h1         1 LLC       0.015200
@<TRIPOS>BOND
     1     1     2 ar  
     2     1    30 ar  
     3     1    33 1   
     4     2     3 ar  
     5     2    34 1   
     6     3     4 ar  
     7     3    32 1   
     8     4    31 ar  
     9     4    35 1   
    10     5    23 ar  
    11     5    24 ar  
    12     5    36 1   
    13     6    24 ar  
    14     6    25 1   
    15     6    26 ar  
    16     7     8 ar  
    17     7    13 ar  
    18     7    57 1   
    19     8     9 ar  
    20     8    37 1   
    21     9    15 ar  
    22     9    38 1   
    23    10    17 1   
    24    10    18 1   
    25    10    39 1   
    26    10    40 1   
    27    11    18 1   
    28    11    21 1   
    29    11    41 1   
    30    11    58 1   
    31    12    57 2   
    32    13    14 ar  
    33    13    42 1   
    34    14    15 ar  
    35    14    43 1   
    36    15    16 1   
    37    16    17 1   
    38    17    44 1   
    39    17    45 1   
    40    18    19 1   
    41    19    20 1   
    42    19    46 1   
    43    19    47 1   
    44    20    21 1   
    45    20    48 1   
    46    20    49 1   
    47    21    50 1   
    48    21    51 1   
    49    22    23 1   
    50    22    29 2   
    51    22    57 1   
    52    23    27 ar  
    53    24    52 1   
    54    25    53 1   
    55    26    27 ar  
    56    26    54 1   
    57    27    28 1   
    58    28    29 1   
    59    29    30 1   
    60    30    31 ar  
    61    31    55 1   
    62    32    56 1   
@<TRIPOS>SUBSTRUCTURE
     1 LLC         1 TEMP              0 ****  ****    0 ROOT
