@<TRIPOS>MOLECULE
molecule
   31    31     1     0     0
SMALL
bcc


@<TRIPOS>ATOM
      1 CBF          0.0000     0.0000     0.0000 c3         1 LLF       0.405900
      2 CAF          1.5290     0.0000     0.0000 c3         1 LLF       0.059800
      3 F1          -0.4670     0.0000     1.3180 f          1 LLF      -0.239300
      4 F2          -0.4670     1.1420    -0.6600 f          1 LLF      -0.239300
      5 NF           2.0170     1.1960     0.6910 n2         1 LLF      -0.625900
      6 C4A          2.6790     1.0810     1.7950 ce         1 LLF       0.520800
      7 C4           3.1710     2.2860     2.4910 ca         1 LLF      -0.173900
      8 C3           2.9270     3.5690     1.9730 ca         1 LLF       0.011800
      9 O3           2.2350     3.7270     0.8160 oh         1 LLF      -0.497100
     10 C2           3.4140     4.6710     2.6600 ca         1 LLF       0.331600
     11 C2A          3.1680     6.0550     2.1170 c3         1 LLF      -0.126400
     12 N1           4.0860     4.5240     3.7840 nb         1 LLF      -0.694000
     13 C5           3.8890     2.1840     3.6880 ca         1 LLF      -0.114600
     14 C6           4.3300     3.3370     4.3050 ca         1 LLF       0.426200
     15 C5M          4.1760     0.8350     4.2950 c3         1 LLF       0.182700
     16 O4P          4.9170     1.0050     5.5050 os         1 LLF      -0.536200
     17 P            5.1880    -0.4690     6.0950 p5         1 LLF       1.140900
     18 OP1          6.1380    -1.2860     5.0850 o          1 LLF      -0.902167
     19 OP2          5.9070    -0.3470     7.5300 o          1 LLF      -0.902167
     20 OP3          3.9000    -1.1830     6.2480 o          1 LLF      -0.902167
     21 HBF         -0.3610    -0.8850    -0.5110 h2         1 LLF       0.041700
     22 HAF1         1.8900    -0.0000    -1.0210 h1         1 LLF       0.054200
     23 HAF2         1.8900    -0.8840     0.5110 h1         1 LLF       0.054200
     24 H4A          2.8730     0.0990     2.2100 h4         1 LLF       0.009800
     25 HO3          2.8330     3.9410     0.1190 ho         1 LLF       0.400000
     26 H2A1         2.1070     6.1920     1.9420 hc         1 LLF       0.033700
     27 H2A2         3.5130     6.7910     2.8330 hc         1 LLF       0.033700
     28 H2A3         3.7060     6.1780     1.1840 hc         1 LLF       0.033700
     29 H6           4.8870     3.2660     5.2320 h4         1 LLF       0.078100
     30 H5M1         3.2430     0.3300     4.5110 h1         1 LLF       0.066700
     31 H5M2         4.7550     0.2420     3.5970 h1         1 LLF       0.066700
@<TRIPOS>BOND
     1     1     2 1
     2     1     3 1
     3     1     4 1
     4     1    21 1
     5     2     5 1
     6     2    22 1
     7     2    23 1
     8     5     6 2
     9     6     7 1
    10     6    24 1
    11     7     8 ar
    12     7    13 ar
    13     8     9 1
    14     8    10 ar
    15     9    25 1
    16    10    11 1
    17    10    12 ar
    18    11    26 1
    19    11    27 1
    20    11    28 1
    21    12    14 ar
    22    13    14 ar
    23    13    15 1
    24    14    29 1
    25    15    16 1
    26    15    30 1
    27    15    31 1
    28    16    17 1
    29    17    18 1
    30    17    19 1
    31    17    20 1
@<TRIPOS>SUBSTRUCTURE
     1 LLF         1 TEMP              0 ****  ****    0 ROOT
