@<TRIPOS>MOLECULE
LLF
   31    32     1     0     0
SMALL
bcc


@<TRIPOS>ATOM
      1 CBF          0.0000     0.0000     0.0000 c3         1 LLF       0.220000
      2 CAF          1.5290     0.0000     0.0000 c3         1 LLF      -0.089000
      3 F1          -0.4670     0.0000     1.3180 f          1 LLF      -0.157000
      4 F2          -0.4670     1.1420    -0.6600 f          1 LLF      -0.157000
      5 NF           2.0170     1.1960     0.6910 n2         1 LLF      -0.142000
      6 C4A          2.6790     1.0810     1.7950 c2         1 LLF      -0.285000
      7 C4           3.1710     2.2860     2.4910 c3         1 LLF      -0.233000
      8 C3           2.9270     3.5690     1.9730 c2         1 LLF       0.048000
      9 O3           2.2350     3.7270     0.8160 oh         1 LLF      -0.235000
     10 C2           3.4140     4.6710     2.6600 c2         1 LLF      -0.197000
     11 C2A          3.1680     6.0550     2.1170 c3         1 LLF      -0.044000
     12 N1           4.0860     4.5240     3.7840 n2         1 LLF      -0.039000
     13 C5           3.8890     2.1840     3.6880 c2         1 LLF       0.029000
     14 C6           4.3300     3.3370     4.3050 c2         1 LLF      -0.098000
     15 C5M          4.1760     0.8350     4.2950 c3         1 LLF       0.106000
     16 O4P          4.9170     1.0050     5.5050 os         1 LLF      -0.622000
     17 P            5.1880    -0.4690     6.0950 p5         1 LLF       0.917500
     18 OP1          6.1380    -1.2860     5.0850 o          1 LLF      -0.726833
     19 OP2          5.9070    -0.3470     7.5300 o          1 LLF      -0.726833
     20 OP3          3.9000    -1.1830     6.2480 o          1 LLF      -0.726833
     21 HBF         -0.3610    -0.8850    -0.5110 h2         1 LLF       0.044000
     22 HAF1         1.8900    -0.8850     0.5100 h1         1 LLF       0.068500
     23 HAF2         1.8900     0.0000    -1.0210 h1         1 LLF       0.068500
     24 H4A          3.5560     1.6440     1.4980 DU         1 LLF       0.327000
     25 HO3          1.4440     4.2110     0.9860 ho         1 LLF       0.195000
     26 H2A1         2.1100     6.2830     2.1750 hc         1 LLF       0.034667
     27 H2A2         3.4900     6.1000     1.0840 hc         1 LLF       0.034667
     28 H2A3         3.7260     6.7770     2.7010 hc         1 LLF       0.034667
     29 H6           4.8870     3.2660     5.2320 h4         1 LLF       0.172000
     30 H5M1         3.2430     0.3300     4.5110 h1         1 LLF       0.090500
     31 H5M2         4.7550     0.2420     3.5970 h1         1 LLF       0.090500
@<TRIPOS>BOND
     1     1     2 1   
     2     1     3 1   
     3     1     4 1   
     4     1    21 1   
     5     2     5 1   
     6     2    22 1   
     7     2    23 1   
     8     5     6 1   
     9     6     7 1   
    10     6    24 1   
    11     7     8 1   
    12     7    13 1   
    13     7    24 1   
    14     8     9 1   
    15     8    10 1   
    16     9    25 1   
    17    10    11 1   
    18    10    12 1   
    19    11    26 1   
    20    11    27 1   
    21    11    28 1   
    22    12    14 1   
    23    13    14 1   
    24    13    15 1   
    25    14    29 1   
    26    15    16 1   
    27    15    30 1   
    28    15    31 1   
    29    16    17 1   
    30    17    18 1   
    31    17    19 1   
    32    17    20 1   
@<TRIPOS>SUBSTRUCTURE
     1 LLF         1 TEMP              0 ****  ****    0 ROOT
