@<TRIPOS>MOLECULE
molecule
   33    34     1     0     0
SMALL
bcc


@<TRIPOS>ATOM
      1 N1           0.0000     0.0000     0.0000 nz         1 LLG      -0.809600
      2 C4           1.9790     0.0000     1.4420 c3         1 LLG       0.117400
      3 C5           1.4690     0.0000     0.0000 c3         1 LLG       0.096800
      4 C6           1.6060    -2.6630     4.1090 c3         1 LLG      -0.061100
      5 C7           1.9690    -1.4010     3.3700 c          1 LLG       0.623100
      6 C10         -0.5440    -0.7560     7.2450 ca         1 LLG      -0.105000
      7 C13          1.9140    -1.8940     7.8410 ca         1 LLG      -0.036000
      8 C15          2.1390    -2.5920     5.5170 ca         1 LLG      -0.100300
      9 C17          3.8540    -3.0910     7.1170 ca         1 LLG      -0.130000
     10 O6           1.5960    -1.2410     2.0910 os         1 LLG      -0.474900
     11 C16          3.3450    -3.1480     5.8210 ca         1 LLG      -0.085000
     12 C18          3.1610    -2.4790     8.1160 ca         1 LLG      -0.085000
     13 C14          1.3960    -1.9510     6.5220 ca         1 LLG      -0.010000
     14 C9           0.1480    -1.3670     6.2460 ca         1 LLG      -0.144000
     15 C11         -0.0350    -0.6990     8.5420 ca         1 LLG      -0.127000
     16 C12          1.1700    -1.2540     8.8460 ca         1 LLG      -0.096000
     17 O8           2.5960    -0.5320     3.9290 o          1 LLG      -0.490000
     18 HN1         -0.3340     0.6430     0.6910 hn         1 LLG       0.460467
     19 HN1A        -0.3340     0.2770    -0.9020 hn         1 LLG       0.460467
     20 H4           3.0580     0.0900     1.4430 h1         1 LLG       0.093200
     21 H4A          1.5460     0.8360     1.9780 h1         1 LLG       0.093200
     22 H5           1.8310     0.8850    -0.5110 hx         1 LLG       0.122700
     23 H5A          1.8310    -0.8850    -0.5110 hx         1 LLG       0.122700
     24 H6           0.5290    -2.7690     4.1360 hc         1 LLG       0.083700
     25 H6A          2.0400    -3.5160     3.6010 hc         1 LLG       0.083700
     26 H17          4.8150    -3.5410     7.3330 ha         1 LLG       0.142000
     27 H16          3.9170    -3.6410     5.0440 ha         1 LLG       0.129000
     28 H18          3.5690    -2.4430     9.1190 ha         1 LLG       0.145000
     29 H9          -0.2610    -1.4030     5.2440 ha         1 LLG       0.109000
     30 H11         -0.6070    -0.2060     9.3190 ha         1 LLG       0.140000
     31 H12          1.5530    -1.2020     9.8580 ha         1 LLG       0.144000
     32 H13         -0.3340    -0.9190     0.2130 hn         1 LLG       0.460467
     33 H10         -1.5060    -0.3060     7.0300 ha         1 LLG       0.128000
@<TRIPOS>BOND
     1     1     3 1
     2     2     3 1
     3     2    10 1
     4     4     5 1
     5     4     8 1
     6     5    10 1
     7     5    17 2
     8     6    14 ar
     9     6    15 ar
    10     7    12 ar
    11     7    13 ar
    12     7    16 ar
    13     8    11 ar
    14     8    13 ar
    15     9    11 ar
    16     9    12 ar
    17    13    14 ar
    18    15    16 ar
    19     1    18 1
    20     1    19 1
    21     2    20 1
    22     2    21 1
    23     3    22 1
    24     3    23 1
    25     4    24 1
    26     4    25 1
    27     6    33 1
    28     9    26 1
    29    11    27 1
    30    12    28 1
    31    14    29 1
    32    15    30 1
    33    16    31 1
    34    32     1 1
@<TRIPOS>SUBSTRUCTURE
     1 LLG         1 TEMP              0 ****  ****    0 ROOT
