@<TRIPOS>MOLECULE
LLG
   33    34     1     0     0
SMALL
bcc


@<TRIPOS>ATOM
      1 N1           0.0000     0.0000     0.0000 nz         1 LLG       0.085400
      2 C4           1.9790     0.0000     1.4420 c3         1 LLG       0.211400
      3 C5           1.4690     0.0000     0.0000 c3         1 LLG      -0.051200
      4 C6           1.6060    -2.6630     4.1090 c3         1 LLG       0.008900
      5 C7           1.9690    -1.4010     3.3700 c          1 LLG       0.685100
      6 C10         -0.5440    -0.7560     7.2450 ca         1 LLG      -0.075000
      7 C13          1.9140    -1.8940     7.8410 ca         1 LLG      -0.037000
      8 C15          2.1390    -2.5920     5.5170 ca         1 LLG      -0.109300
      9 C17          3.8540    -3.0910     7.1170 ca         1 LLG      -0.103000
     10 O6           1.5960    -1.2410     2.0910 os         1 LLG      -0.463900
     11 C16          3.3450    -3.1480     5.8210 ca         1 LLG      -0.059000
     12 C18          3.1610    -2.4790     8.1160 ca         1 LLG      -0.055000
     13 C14          1.3960    -1.9510     6.5220 ca         1 LLG      -0.006000
     14 C9           0.1480    -1.3670     6.2460 ca         1 LLG      -0.126000
     15 C11         -0.0350    -0.6990     8.5420 ca         1 LLG      -0.101000
     16 C12          1.1700    -1.2540     8.8460 ca         1 LLG      -0.064000
     17 O8           2.5960    -0.5320     3.9290 o          1 LLG      -0.525000
     18 HN1         -0.3340     0.6430     0.6910 hn         1 LLG       0.226133
     19 HN1A        -0.3340     0.2770    -0.9020 hn         1 LLG       0.226133
     20 H4           3.0580     0.0900     1.4430 h1         1 LLG       0.048700
     21 H4A          1.5460     0.8360     1.9780 h1         1 LLG       0.048700
     22 H5           1.8310     0.8850    -0.5110 hx         1 LLG       0.092200
     23 H5A          1.8310    -0.8850    -0.5110 hx         1 LLG       0.092200
     24 H6           0.5290    -2.7690     4.1360 hc         1 LLG       0.044700
     25 H6A          2.0400    -3.5160     3.6010 hc         1 LLG       0.044700
     26 H17          4.8150    -3.5410     7.3330 ha         1 LLG       0.111000
     27 H16          3.9170    -3.6410     5.0440 ha         1 LLG       0.100000
     28 H18          3.5690    -2.4430     9.1190 ha         1 LLG       0.114000
     29 H9          -0.2610    -1.4030     5.2440 ha         1 LLG       0.087000
     30 H11         -0.6070    -0.2060     9.3190 ha         1 LLG       0.110000
     31 H12          1.5530    -1.2020     9.8580 ha         1 LLG       0.114000
     32 H13         -0.3340    -0.9190     0.2130 hn         1 LLG       0.226133
     33 H10         -1.5060    -0.3060     7.0300 ha         1 LLG       0.099000
@<TRIPOS>BOND
     1     1     3 1   
     2     1    18 1   
     3     1    19 1   
     4     1    32 1   
     5     2     3 1   
     6     2    10 1   
     7     2    20 1   
     8     2    21 1   
     9     3    22 1   
    10     3    23 1   
    11     4     5 1   
    12     4     8 1   
    13     4    24 1   
    14     4    25 1   
    15     5    10 1   
    16     5    17 2   
    17     6    14 ar  
    18     6    15 ar  
    19     6    33 1   
    20     7    12 ar  
    21     7    13 ar  
    22     7    16 ar  
    23     8    11 ar  
    24     8    13 ar  
    25     9    11 ar  
    26     9    12 ar  
    27     9    26 1   
    28    11    27 1   
    29    12    28 1   
    30    13    14 ar  
    31    14    29 1   
    32    15    16 ar  
    33    15    30 1   
    34    16    31 1   
@<TRIPOS>SUBSTRUCTURE
     1 LLG         1 TEMP              0 ****  ****    0 ROOT
