@<TRIPOS>MOLECULE
LLH
   21    20     1     0     0
SMALL
bcc


@<TRIPOS>ATOM
      1 O5A          0.0000     0.0000     0.0000 o          1 LLH      -0.887800
      2 C5           1.2070     0.0000     0.0000 c          1 LLH       0.951600
      3 O5B          1.8790     0.0060    -1.1630 o          1 LLH      -0.887800
      4 C4           1.9610     0.0000     1.3050 c3         1 LLH       0.058100
      5 O4           1.0380    -0.1180     2.3880 oh         1 LLH      -0.592800
      6 C3           2.7450     1.3080     1.4420 c3         1 LLH       0.209100
      7 O3           1.8520     2.4150     1.2990 oh         1 LLH      -0.608800
      8 C2           3.4090     1.3620     2.8200 c3         1 LLH       0.111100
      9 O2           4.3020     0.2550     2.9620 oh         1 LLH      -0.548800
     10 C1           4.1800     2.6500     2.9540 c          1 LLH       0.542100
     11 O1           5.3880     2.6250     3.0610 o          1 LLH      -0.638100
     12 N            3.5270     3.8290     2.9550 ns         1 LLH      -0.067400
     13 ON           4.2520     5.0400     3.0810 oh         1 LLH      -0.454100
     14 H4           2.6490    -0.8370     1.3240 h1         1 LLH       0.011700
     15 HO4          0.7880    -1.0210     2.4920 ho         1 LLH       0.377000
     16 H3           3.5060     1.3560     0.6720 h1         1 LLH       0.038700
     17 HO3          1.8970     2.7430     0.4170 ho         1 LLH       0.411000
     18 H2           2.6490     1.3150     3.5900 h1         1 LLH       0.026700
     19 HO2          4.4380     0.0770     3.8770 ho         1 LLH       0.380000
     20 HN           2.5270     3.8470     2.9090 hn         1 LLH       0.188500
     21 HON          3.7180     5.6810     3.5210 ho         1 LLH       0.378000
@<TRIPOS>BOND
     1     1     2 1   
     2     2     3 1   
     3     2     4 1   
     4     4     5 1   
     5     4     6 1   
     6     4    14 1   
     7     5    15 1   
     8     6     7 1   
     9     6     8 1   
    10     6    16 1   
    11     7    17 1   
    12     8     9 1   
    13     8    10 1   
    14     8    18 1   
    15     9    19 1   
    16    10    11 2   
    17    10    12 1   
    18    12    13 1   
    19    12    20 1   
    20    13    21 1   
@<TRIPOS>SUBSTRUCTURE
     1 LLH         1 TEMP              0 ****  ****    0 ROOT
