@<TRIPOS>MOLECULE
LLI
   71    75     1     0     0
SMALL
bcc


@<TRIPOS>ATOM
      1 C2           0.0000     0.0000     0.0000 ca         1 LLI       0.116100
      2 C3           1.3930     0.0000     0.0000 ca         1 LLI       0.127100
      3 O1          -0.6800    -0.0070    -1.1770 os         1 LLI      -0.299900
      4 C12          0.8880     0.0720     4.9220 c3         1 LLI      -0.078000
      5 C14          0.3060    -0.8490     6.0030 c3         1 LLI      -0.122700
      6 C15         -1.0930    -0.3940     6.3160 c          1 LLI       0.614500
      7 C16          0.9190     1.5070     5.4610 c3         1 LLI       0.016800
      8 C17          1.4950     1.5550     6.8410 c2         1 LLI      -0.167200
      9 C18          1.1920    -0.8590     7.2340 c3         1 LLI       0.037800
     10 C19          1.6080     0.5280     7.6210 c2         1 LLI      -0.134200
     11 C21         -3.1920     0.6060     5.5660 c3         1 LLI       0.033700
     12 C22         -4.2410    -0.2160     4.7890 c3         1 LLI      -0.041900
     13 C23         -3.2720     2.0380     5.1090 c3         1 LLI      -0.041900
     14 C24         -5.5800    -0.0680     5.3390 c3         1 LLI      -0.020900
     15 C25         -4.1880     2.8930     6.0050 c3         1 LLI      -0.020900
     16 C26         -5.4820     2.1600     6.4100 c3         1 LLI      -0.032400
     17 C27         -6.0870     1.3890     5.2690 c3         1 LLI      -0.032400
     18 C28         -2.1080    -0.0110    -1.1020 c3         1 LLI       0.166400
     19 C29         -2.6930    -0.0180    -2.5160 c3         1 LLI       0.100000
     20 C4          -0.6920     0.0020     1.1970 ca         1 LLI      -0.089000
     21 C5           2.0900     0.0000     1.1990 ca         1 LLI      -0.181000
     22 C6           0.0110     0.0080     2.4060 ca         1 LLI      -0.116900
     23 C7           1.4080     0.0020     2.3980 ca         1 LLI      -0.178000
     24 O8           2.0710    -0.0010    -1.1790 os         1 LLI      -0.296900
     25 C9           3.4970    -0.0020    -1.1060 c3         1 LLI       0.240700
     26 C10         -0.0810     0.0520     3.7530 ce         1 LLI       0.419900
     27 N11         -1.3560     0.0480     3.9890 n2         1 LLI      -0.556300
     28 N13         -1.8540     0.0750     5.2990 n          1 LLI       0.081200
     29 N30         -2.3360    -1.2710    -3.1860 n          1 LLI      -0.192800
     30 C31         -1.1220    -1.4920    -3.9890 c3         1 LLI       0.032000
     31 C32         -3.0580    -2.3980    -3.1610 c          1 LLI       0.628500
     32 C33         -1.2480    -2.9570    -4.4500 c3         1 LLI       0.018000
     33 N34         -2.5150    -3.4070    -3.8550 ns         1 LLI      -0.232900
     34 O35         -4.1120    -2.4970    -2.5630 o          1 LLI      -0.742500
     35 H1           1.8760    -0.2540     4.6180 hc         1 LLI       0.065700
     36 H2           0.2590    -1.8560     5.6070 hc         1 LLI       0.049700
     37 H3           1.5240     2.1190     4.8040 hc         1 LLI       0.031200
     38 H4          -0.0920     1.8970     5.4870 hc         1 LLI       0.031200
     39 H5           1.8420     2.5120     7.2120 ha         1 LLI       0.101000
     40 H6           0.6480    -1.3070     8.0570 hc         1 LLI       0.035200
     41 H7           2.0780    -1.4470     7.0260 hc         1 LLI       0.035200
     42 H8           2.0260     0.6800     8.6090 ha         1 LLI       0.102000
     43 H9          -3.4050     0.5530     6.6270 h1         1 LLI       0.078700
     44 H10         -4.2490     0.1130     3.7570 hc         1 LLI       0.024450
     45 H11         -3.9630    -1.2620     4.8270 hc         1 LLI       0.024450
     46 H12         -3.6570     2.0590     4.0960 hc         1 LLI       0.024450
     47 H13         -2.2760     2.4640     5.1200 hc         1 LLI       0.024450
     48 H14         -5.5700    -0.3840     6.3750 hc         1 LLI       0.013950
     49 H15         -6.2590    -0.7010     4.7800 hc         1 LLI       0.013950
     50 H16         -3.6450     3.1600     6.9030 hc         1 LLI       0.013950
     51 H17         -4.4540     3.7960     5.4690 hc         1 LLI       0.013950
     52 H18         -6.2020     2.8910     6.7580 hc         1 LLI       0.017450
     53 H19         -5.2560     1.4720     7.2150 hc         1 LLI       0.017450
     54 H20         -5.7850     1.8340     4.3290 hc         1 LLI       0.017450
     55 H21         -7.1670     1.4020     5.3540 hc         1 LLI       0.017450
     56 H22         -2.4440     0.8750    -0.5770 h1         1 LLI       0.017700
     57 H23         -2.4380    -0.8940    -0.5700 h1         1 LLI       0.017700
     58 H24         -2.2930     0.8180    -3.0770 h1         1 LLI       0.036200
     59 H25         -3.7720     0.0670    -2.4610 h1         1 LLI       0.036200
     60 H26         -1.7750     0.0040     1.1980 ha         1 LLI       0.135000
     61 H27          3.1730    -0.0020     1.1930 ha         1 LLI       0.120000
     62 H28          1.9560     0.0040     3.3320 ha         1 LLI       0.147000
     63 H29          3.8320    -0.8920    -0.5860 h1         1 LLI      -0.001967
     64 H30          3.8320     0.8770    -0.5700 h1         1 LLI      -0.001967
     65 H31          3.9100     0.0070    -2.1080 h1         1 LLI      -0.001967
     66 H32         -0.2810    -1.4450    -3.3090 h1         1 LLI       0.039200
     67 H33         -1.2120    -0.8730    -4.8740 h1         1 LLI       0.039200
     68 H34         -1.3920    -2.9400    -5.5240 h1         1 LLI       0.030200
     69 H35         -0.4560    -3.5110    -3.9610 h1         1 LLI       0.030200
     70 H36         -2.9090    -4.3220    -3.9520 hn         1 LLI       0.212500
     71 O20         -1.5270    -0.4470     7.4480 o          1 LLI      -0.660500
@<TRIPOS>BOND
     1     1     2 ar  
     2     1     3 1   
     3     1    20 ar  
     4     2    21 ar  
     5     2    24 1   
     6     3    18 1   
     7     4     5 1   
     8     4     7 1   
     9     4    26 1   
    10     4    35 1   
    11     5     6 1   
    12     5     9 1   
    13     5    36 1   
    14     6    28 1   
    15     6    71 2   
    16     7     8 1   
    17     7    37 1   
    18     7    38 1   
    19     8    10 2   
    20     8    39 1   
    21     9    10 1   
    22     9    40 1   
    23     9    41 1   
    24    10    42 1   
    25    11    12 1   
    26    11    13 1   
    27    11    28 1   
    28    11    43 1   
    29    12    14 1   
    30    12    44 1   
    31    12    45 1   
    32    13    15 1   
    33    13    46 1   
    34    13    47 1   
    35    14    17 1   
    36    14    48 1   
    37    14    49 1   
    38    15    16 1   
    39    15    50 1   
    40    15    51 1   
    41    16    17 1   
    42    16    52 1   
    43    16    53 1   
    44    17    54 1   
    45    17    55 1   
    46    18    19 1   
    47    18    56 1   
    48    18    57 1   
    49    19    29 1   
    50    19    58 1   
    51    19    59 1   
    52    20    22 ar  
    53    20    60 1   
    54    21    23 ar  
    55    21    61 1   
    56    22    23 ar  
    57    22    26 1   
    58    23    62 1   
    59    24    25 1   
    60    25    63 1   
    61    25    64 1   
    62    25    65 1   
    63    26    27 2   
    64    27    28 1   
    65    29    30 1   
    66    29    31 1   
    67    30    32 1   
    68    30    66 1   
    69    30    67 1   
    70    31    33 1   
    71    31    34 2   
    72    32    33 1   
    73    32    68 1   
    74    32    69 1   
    75    33    70 1   
@<TRIPOS>SUBSTRUCTURE
     1 LLI         1 TEMP              0 ****  ****    0 ROOT
