@<TRIPOS>MOLECULE
LLJ
   82    86     1     0     0
SMALL
bcc


@<TRIPOS>ATOM
      1 C1           0.0000     0.0000     0.0000 ca         1 LLJ      -0.111000
      2 N1          10.2430    -1.3670    -0.3420 ny         1 LLJ       0.017500
      3 O1           6.9360    -0.1780    -1.2470 os         1 LLJ      -0.400100
      4 C2           1.3940     0.0000     0.0000 ca         1 LLJ      -0.039050
      5 N2           3.3790    -0.7750    -1.1650 ny         1 LLJ       0.017500
      6 O2           6.8790    -0.1860     6.7770 os         1 LLJ      -0.400100
      7 C3          -0.7020    -0.0000     1.1660 ca         1 LLJ       0.028750
      8 N3          10.2960    -1.4170     6.7580 ny         1 LLJ       0.017500
      9 C4          -0.0140    -0.0010     2.3910 ca         1 LLJ      -0.060500
     10 N4           3.4370    -0.6750     5.9100 ny         1 LLJ       0.017500
     11 C5           1.4040    -0.0010     2.3920 ca         1 LLJ       0.013500
     12 C6           2.0940     0.0000     1.1680 ca         1 LLJ      -0.253000
     13 C7          -0.7030    -0.0020     3.6160 ca         1 LLJ       0.028750
     14 C8          -0.0010    -0.0050     4.7830 ca         1 LLJ      -0.111000
     15 C9           1.3920    -0.0070     4.7840 ca         1 LLJ      -0.039050
     16 C10          2.0930    -0.0050     3.6170 ca         1 LLJ      -0.253000
     17 C11         11.6300    -0.9170    -0.5210 c3         1 LLJ       0.032100
     18 C12         11.6830    -0.8690     4.4040 ca         1 LLJ      -0.253000
     19 C13         12.3720    -0.9860     5.5720 ca         1 LLJ      -0.039050
     20 C14         13.7430    -1.2390     5.5730 ca         1 LLJ      -0.111000
     21 C15         14.4310    -1.3780     4.4060 ca         1 LLJ       0.028750
     22 C16         13.7530    -1.2650     3.1810 ca         1 LLJ      -0.060500
     23 C17         12.3590    -1.0080     3.1800 ca         1 LLJ       0.013500
     24 C18         14.4290    -1.4040     1.9560 ca         1 LLJ       0.028750
     25 C19         13.7370    -1.2910     0.7900 ca         1 LLJ      -0.111000
     26 C20         12.3660    -1.0370     0.7890 ca         1 LLJ      -0.039050
     27 C21         11.6800    -0.8950     1.9560 ca         1 LLJ      -0.253000
     28 C22          9.3290    -0.4130    -0.9830 c3         1 LLJ      -0.045200
     29 C23          8.0110    -1.1160    -1.3150 c3         1 LLJ       0.220650
     30 C24          5.7260    -0.6380    -1.8530 c3         1 LLJ       0.220650
     31 C25          4.5360     0.1250    -1.2670 c3         1 LLJ      -0.045200
     32 C26          2.1390    -0.0000    -1.3090 c3         1 LLJ       0.032100
     33 C27         11.6410    -0.8370     6.8800 c3         1 LLJ       0.032100
     34 C28          9.2930    -0.3440     6.7840 c3         1 LLJ      -0.045200
     35 C29          7.9820    -0.8870     7.3570 c3         1 LLJ       0.220650
     36 C30          5.6100    -0.7930     7.0300 c3         1 LLJ       0.220650
     37 C31          4.4930     0.1290     6.5370 c3         1 LLJ      -0.045200
     38 C32          2.1380    -0.0120     6.0930 c3         1 LLJ       0.032100
     39 H1          -0.6900     0.0300    -0.8350 ha         1 LLJ       0.153500
     40 H3N2         3.4280    -1.4630    -1.8900 hn         1 LLJ       0.254300
     41 H4N2         3.3870    -1.2290    -0.2730 hn         1 LLJ       0.254300
     42 H3          -1.7830    -0.0010     1.1080 ha         1 LLJ       0.147000
     43 H6           2.8320     0.7690     1.3620 ha         1 LLJ       0.137000
     44 H17         -1.7840    -0.0030     3.6710 ha         1 LLJ       0.147000
     45 HN1A        10.0350    -1.4230     0.6350 hn         1 LLJ       0.254300
     46 H18         -0.6920     0.0210     5.6170 ha         1 LLJ       0.153500
     47 H10          2.8570     0.7400     3.4280 ha         1 LLJ       0.137000
     48 H111        12.1170    -1.5330    -1.2670 hx         1 LLJ       0.098200
     49 H211        11.6350     0.1170    -0.8450 hx         1 LLJ       0.098200
     50 H12         11.1030     0.0240     4.2040 ha         1 LLJ       0.137000
     51 H14         14.4290    -1.3250     6.4070 ha         1 LLJ       0.153500
     52 H15         15.4950    -1.5750     4.4640 ha         1 LLJ       0.147000
     53 H18A        15.4920    -1.6010     1.9010 ha         1 LLJ       0.147000
     54 H19         14.4200    -1.3990    -0.0440 ha         1 LLJ       0.153500
     55 H21         11.0580    -0.0250     2.1270 ha         1 LLJ       0.137000
     56 H122         9.1380     0.4130    -0.3090 hx         1 LLJ       0.094575
     57 H222         9.7780    -0.0390    -1.8950 hx         1 LLJ       0.094575
     58 H123         7.8380    -1.9140    -0.6020 h1         1 LLJ       0.020950
     59 H223         8.0650    -1.5310    -2.3140 h1         1 LLJ       0.020950
     60 H124         5.6050    -1.6970    -1.6600 h1         1 LLJ       0.020950
     61 H224         5.7710    -0.4690    -2.9220 h1         1 LLJ       0.020950
     62 H125         4.7950     0.4940    -0.2820 hx         1 LLJ       0.094575
     63 H225         4.2890     0.9590    -1.9120 hx         1 LLJ       0.094575
     64 H126         1.5210    -0.4480    -2.0770 hx         1 LLJ       0.098200
     65 H226         2.3800     1.0190    -1.5870 hx         1 LLJ       0.098200
     66 H127        12.1870    -1.3540     7.6600 hx         1 LLJ       0.098200
     67 H227        11.5590     0.2130     7.1310 hx         1 LLJ       0.098200
     68 H128         9.6500     0.4680     7.4060 hx         1 LLJ       0.094575
     69 H228         9.1250     0.0180     5.7770 hx         1 LLJ       0.094575
     70 HN3         10.2260    -1.9170     5.8930 hn         1 LLJ       0.254300
     71 H129         7.9730    -0.7500     8.4310 h1         1 LLJ       0.020950
     72 H229         7.8980    -1.9430     7.1280 h1         1 LLJ       0.020950
     73 HN3A        10.1330    -2.0450     7.5200 hn         1 LLJ       0.254300
     74 H130         5.4960    -0.9600     8.0940 h1         1 LLJ       0.020950
     75 H230         5.5530    -1.7400     6.5080 h1         1 LLJ       0.020950
     76 H131         4.8950     0.8270     5.8110 hx         1 LLJ       0.094575
     77 H231         4.0810     0.6770     7.3750 hx         1 LLJ       0.094575
     78 H132         1.5610    -0.5470     6.8370 hx         1 LLJ       0.098200
     79 H232         2.2960     1.0080     6.4230 hx         1 LLJ       0.098200
     80 HN4          3.4110    -1.5810     6.3340 hn         1 LLJ       0.254300
     81 HN4A         3.6270    -0.7700     4.9320 hn         1 LLJ       0.254300
     82 HN1         10.1300    -2.2690    -0.7590 hn         1 LLJ       0.254300
@<TRIPOS>BOND
     1     1     4 ar  
     2     1     7 ar  
     3     1    39 1   
     4     2    17 1   
     5     2    28 1   
     6     2    45 1   
     7     2    82 1   
     8     3    29 1   
     9     3    30 1   
    10     4    12 ar  
    11     4    32 1   
    12     5    31 1   
    13     5    32 1   
    14     5    40 1   
    15     5    41 1   
    16     6    35 1   
    17     6    36 1   
    18     7     9 ar  
    19     7    42 1   
    20     8    33 1   
    21     8    34 1   
    22     8    70 1   
    23     8    73 1   
    24     9    11 ar  
    25     9    13 ar  
    26    10    37 1   
    27    10    38 1   
    28    10    80 1   
    29    10    81 1   
    30    11    12 ar  
    31    11    16 ar  
    32    12    43 1   
    33    13    14 ar  
    34    13    44 1   
    35    14    15 ar  
    36    14    46 1   
    37    15    16 ar  
    38    15    38 1   
    39    16    47 1   
    40    17    26 1   
    41    17    48 1   
    42    17    49 1   
    43    18    19 ar  
    44    18    23 ar  
    45    18    50 1   
    46    19    20 ar  
    47    19    33 1   
    48    20    21 ar  
    49    20    51 1   
    50    21    22 ar  
    51    21    52 1   
    52    22    23 ar  
    53    22    24 ar  
    54    23    27 ar  
    55    24    25 ar  
    56    24    53 1   
    57    25    26 ar  
    58    25    54 1   
    59    26    27 ar  
    60    27    55 1   
    61    28    29 1   
    62    28    56 1   
    63    28    57 1   
    64    29    58 1   
    65    29    59 1   
    66    30    31 1   
    67    30    60 1   
    68    30    61 1   
    69    31    62 1   
    70    31    63 1   
    71    32    64 1   
    72    32    65 1   
    73    33    66 1   
    74    33    67 1   
    75    34    35 1   
    76    34    68 1   
    77    34    69 1   
    78    35    71 1   
    79    35    72 1   
    80    36    37 1   
    81    36    74 1   
    82    36    75 1   
    83    37    76 1   
    84    37    77 1   
    85    38    78 1   
    86    38    79 1   
@<TRIPOS>SUBSTRUCTURE
     1 LLJ         1 TEMP              0 ****  ****    0 ROOT
