@<TRIPOS>MOLECULE
molecule
   31    32     1     0     0
SMALL
bcc


@<TRIPOS>ATOM
      1 C1           0.0000     0.0000     0.0000 ca         1 LLK      -0.066000
      2 O1          -4.8700     0.0000     1.4660 o          1 LLK      -0.547100
      3 C2           1.3600     0.0000     0.0000 ca         1 LLK      -0.210000
      4 C3           2.0780     0.0000     1.2000 ca         1 LLK       0.152100
      5 O3           3.4360    -0.0000     1.1700 os         1 LLK      -0.326900
      6 C4           1.4230     0.0000     2.4120 ca         1 LLK      -0.172000
      7 C5           0.0210     0.0000     2.4420 ca         1 LLK       0.021000
      8 C6          -0.7010    -0.0010     1.2210 ca         1 LLK      -0.088000
      9 C7          -2.1020    -0.0010     1.2480 ca         1 LLK      -0.034000
     10 C8          -2.7600    -0.0010     2.4690 ca         1 LLK      -0.184600
     11 C9          -2.0330    -0.0010     3.6730 ca         1 LLK      -0.086000
     12 C10         -0.6770    -0.0000     3.6650 ca         1 LLK      -0.138000
     13 C11         -4.2370     0.0000     2.5050 c          1 LLK       0.582900
     14 C12         -4.9410     0.0000     3.7950 ce         1 LLK      -0.277200
     15 C13         -6.2720     0.0010     3.8270 c2         1 LLK      -0.083200
     16 C14         -6.9940     0.0010     5.1500 c3         1 LLK      -0.073900
     17 C31          4.0560     0.0010    -0.1180 c3         1 LLK       0.127700
     18 H1          -0.5430    -0.0000    -0.9370 ha         1 LLK       0.138000
     19 H2           1.8940    -0.0000    -0.9420 ha         1 LLK       0.137000
     20 H4           1.9880    -0.0000     3.3360 ha         1 LLK       0.149000
     21 H7          -2.6660    -0.0010     0.3230 ha         1 LLK       0.154000
     22 H9          -2.5620    -0.0010     4.6180 ha         1 LLK       0.133000
     23 H10         -0.1300    -0.0000     4.6000 ha         1 LLK       0.136000
     24 H12         -4.3770    -0.0010     4.7200 ha         1 LLK       0.133000
     25 H31          5.1330     0.0020    -0.0000 h1         1 LLK       0.042367
     26 H31A         3.7530    -0.8830    -0.6650 h1         1 LLK       0.042367
     27 H31B         3.7520     0.8860    -0.6640 h1         1 LLK       0.042367
     28 H14         -6.7170     0.8850     5.7120 hc         1 LLK       0.048700
     29 H14A        -6.7190    -0.8840     5.7110 hc         1 LLK       0.048700
     30 H14B        -8.0630     0.0020     4.9780 hc         1 LLK       0.048700
     31 H13         -6.8370     0.0020     2.9030 ha         1 LLK       0.149000
@<TRIPOS>BOND
     1     8     1 ar
     2    18     1 1
     3     1     3 ar
     4     2    13 2
     5     3     4 ar
     6     3    19 1
     7     6     4 ar
     8     4     5 1
     9     5    17 1
    10     7     6 ar
    11     6    20 1
    12    12     7 ar
    13     8     7 ar
    14     9     8 ar
    15    10     9 ar
    16    21     9 1
    17    13    10 1
    18    10    11 ar
    19    22    11 1
    20    11    12 ar
    21    12    23 1
    22    14    13 1
    23    15    14 2
    24    14    24 1
    25    16    15 1
    26    15    31 1
    27    28    16 1
    28    30    16 1
    29    16    29 1
    30    26    17 1
    31    27    17 1
    32    17    25 1
@<TRIPOS>SUBSTRUCTURE
     1 LLK         1 TEMP              0 ****  ****    0 ROOT
