@<TRIPOS>MOLECULE
LLK
   31    32     1     0     0
SMALL
bcc


@<TRIPOS>ATOM
      1 C1         -0.0660   -0.1360   -0.0360 ca        1 LLK     -0.074000
      2 O1         -4.8690   -1.1400    1.6890 o         1 LLK     -0.545100
      3 C2          1.2970    0.0140   -0.1020 ca        1 LLK     -0.189000
      4 C3          2.0470    0.1240    1.0990 ca        1 LLK      0.134100
      5 O3          3.4200    0.2800    1.1330 os        1 LLK     -0.326900
      6 C4          1.4250    0.0820    2.3380 ca        1 LLK     -0.167000
      7 C5          0.0200   -0.0730    2.4100 ca        1 LLK      0.013000
      8 C6         -0.7380   -0.1820    1.2150 ca        1 LLK     -0.083000
      9 C7         -2.1460   -0.3390    1.2960 ca        1 LLK     -0.044000
     10 C8         -2.7830   -0.3690    2.5200 ca        1 LLK     -0.175600
     11 C9         -2.0210   -0.2690    3.7150 ca        1 LLK     -0.091000
     12 C10        -0.6580   -0.1280    3.6620 ca        1 LLK     -0.136000
     13 C11        -4.2540   -0.5220    2.5730 c         1 LLK      0.577900
     14 C12        -4.9430    0.1150    3.7070 ce        1 LLK     -0.270200
     15 C13        -6.2180   -0.1630    4.0110 c2        1 LLK     -0.079200
     16 C14        -6.9510    0.4560    5.1310 c3        1 LLK     -0.081900
     17 C31         4.0860    0.3120   -0.1240 c3        1 LLK      0.113700
     18 H1         -0.6620   -0.2230   -0.9580 ha        1 LLK      0.138000
     19 H2          1.8040    0.0490   -1.0760 ha        1 LLK      0.140000
     20 H4          2.0180    0.1670    3.2600 ha        1 LLK      0.152000
     21 H7         -2.7320   -0.4400    0.3670 ha        1 LLK      0.150000
     22 H9         -2.5370   -0.3210    4.6860 ha        1 LLK      0.137000
     23 H10        -0.0630   -0.0560    4.5840 ha        1 LLK      0.137000
     24 H12        -4.3560    0.8480    4.2820 ha        1 LLK      0.138000
     25 H31         3.9320   -0.6450   -0.6780 h1        1 LLK      0.045700
     26 H31A        3.7370    1.1810   -0.7330 h1        1 LLK      0.045700
     27 H31B        5.1630    0.4350    0.1580 h1        1 LLK      0.045700
     28 H14        -7.2950   -0.3350    5.8440 hc        1 LLK      0.051033
     29 H14A       -7.8550    0.9910    4.7430 hc        1 LLK      0.051033
     30 H14B       -6.3210    1.1890    5.6930 hc        1 LLK      0.051033
     31 H13        -6.7870   -0.8960    3.4090 ha        1 LLK      0.142000
@<TRIPOS>BOND
     1    1    3 ar  
     2    1    8 ar  
     3    1   18 1   
     4    2   13 2   
     5    3    4 ar  
     6    3   19 1   
     7    4    5 1   
     8    4    6 ar  
     9    5   17 1   
    10    6    7 ar  
    11    6   20 1   
    12    7    8 ar  
    13    7   12 ar  
    14    8    9 ar  
    15    9   10 ar  
    16    9   21 1   
    17   10   11 ar  
    18   10   13 1   
    19   11   12 ar  
    20   11   22 1   
    21   12   23 1   
    22   13   14 1   
    23   14   15 2   
    24   14   24 1   
    25   15   16 1   
    26   15   31 1   
    27   16   28 1   
    28   16   29 1   
    29   16   30 1   
    30   17   25 1   
    31   17   26 1   
    32   17   27 1   
@<TRIPOS>SUBSTRUCTURE
     1 LLK         1 TEMP              0 ****  ****    0 ROOT
