@<TRIPOS>MOLECULE
LLN
   75    79     1     0     0
SMALL
bcc


@<TRIPOS>ATOM
      1 C1           0.0000     0.0000     0.0000 c3         1 LLN       0.192400
      2 C2           2.0450    -0.0000    -1.2110 ca         1 LLN       0.131100
      3 C3           1.2880    -0.0060    -2.3740 ca         1 LLN      -0.185000
      4 O1           1.4280     0.0000     0.0000 os         1 LLN      -0.281900
      5 C11          4.9250    -2.9170     3.1240 c3         1 LLN       0.028000
      6 C12          6.6640    -2.3660     1.7380 c          1 LLN       0.629500
      7 C13          3.9700    -0.0180    -4.9990 ce         1 LLN       0.410900
      8 C14          7.2750     0.5280    -6.4320 c3         1 LLN       0.033700
      9 C15          7.2950     1.9660    -5.9870 c3         1 LLN      -0.042400
     10 C16          8.3090     2.8130    -6.7790 c3         1 LLN      -0.020900
     11 C17          9.6450     2.0810    -7.0140 c3         1 LLN      -0.032400
     12 C18         10.1100     1.3270    -5.7980 c3         1 LLN      -0.032400
     13 C19          9.6210    -0.1310    -5.9070 c3         1 LLN      -0.020900
     14 C20          8.2250    -0.2790    -5.5220 c3         1 LLN      -0.042400
     15 C21          5.2860    -0.4930    -7.4160 c          1 LLN       0.616500
     16 C22          3.8590    -0.9500    -7.2660 c3         1 LLN      -0.122700
     17 C23          3.1220    -0.9590    -8.5930 c3         1 LLN       0.036800
     18 C24          2.7520     0.4290    -9.0210 c2         1 LLN      -0.136200
     19 C25          2.7720     1.4530    -8.2330 c2         1 LLN      -0.166200
     20 C26          3.1790     1.4090    -6.8350 c3         1 LLN       0.017800
     21 C27          3.1480    -0.0180    -6.2760 c3         1 LLN      -0.109000
     22 O4           5.8530    -0.5570    -8.4850 o          1 LLN      -0.656500
     23 N3           5.9160    -0.0070    -6.3200 n          1 LLN       0.083200
     24 N2           5.2640    -0.0180    -5.0800 n2         1 LLN      -0.518300
     25 C5           3.3040    -0.0120    -3.6840 ca         1 LLN      -0.131900
     26 C4           1.9090    -0.0110    -3.6050 ca         1 LLN      -0.087000
     27 C6           4.0660    -0.0060    -2.5140 ca         1 LLN      -0.139000
     28 C7           3.4370    -0.0000    -1.2830 ca         1 LLN       0.114100
     29 C           -0.5100     0.0000     1.4420 c3         1 LLN       0.223400
     30 O           -0.1320     1.2210     2.0810 oh         1 LLN      -0.581800
     31 C8           5.5980     0.0060    -0.2890 c3         1 LLN       0.166400
     32 C9           6.2530     0.0120     1.0940 c3         1 LLN       0.098000
     33 N            5.9360    -1.2370     1.7910 n          1 LLN      -0.180800
     34 N1           6.1610    -3.3690     2.4670 ns         1 LLN      -0.230900
     35 C10          4.7720    -1.4550     2.6610 c3         1 LLN       0.032000
     36 H1          -0.3610    -0.8850    -0.5110 h1         1 LLN       0.007700
     37 H2          -0.3610     0.8850    -0.5110 h1         1 LLN       0.007700
     38 H3           0.2070    -0.0050    -2.3150 ha         1 LLN       0.122000
     39 H5           5.1240    -2.8920     4.1890 h1         1 LLN       0.029700
     40 H6           7.6150     0.4620    -7.4580 h1         1 LLN       0.079700
     41 H7           7.5550     2.0020    -4.9360 hc         1 LLN       0.024450
     42 H8           6.3060     2.3870    -6.1230 hc         1 LLN       0.024450
     43 H9           7.8770     3.0640    -7.7400 hc         1 LLN       0.013950
     44 H10          8.5050     3.7250    -6.2290 hc         1 LLN       0.013950
     45 H11         10.3990     2.8100    -7.2820 hc         1 LLN       0.017950
     46 H12          9.5200     1.3810    -7.8310 hc         1 LLN       0.017950
     47 H13         11.1920     1.3450    -5.7520 hc         1 LLN       0.017950
     48 H14          9.6950     1.7830    -4.9070 hc         1 LLN       0.017950
     49 H15         10.2290    -0.7530    -5.2610 hc         1 LLN       0.013950
     50 H16          9.7370    -0.4620    -6.9320 hc         1 LLN       0.013950
     51 H17          7.9560    -1.3270    -5.5790 hc         1 LLN       0.024450
     52 H18          8.1060     0.0640    -4.5020 hc         1 LLN       0.024450
     53 H19          3.8570    -1.9550    -6.8610 hc         1 LLN       0.049700
     54 H20          2.2190    -1.5490    -8.4910 hc         1 LLN       0.034200
     55 H21          3.7580    -1.4040    -9.3480 hc         1 LLN       0.034200
     56 H22          2.4500     0.5820   -10.0500 ha         1 LLN       0.100000
     57 H23          2.4660     2.4090    -8.6390 ha         1 LLN       0.100000
     58 H24          2.5070     2.0290    -6.2540 hc         1 LLN       0.029700
     59 H25          4.1870     1.7980    -6.7510 hc         1 LLN       0.029700
     60 H26          2.1320    -0.3450    -6.0890 hc         1 LLN       0.058700
     61 H27          1.3150    -0.0160    -4.5110 ha         1 LLN       0.112000
     62 H28          5.1480    -0.0060    -2.5710 ha         1 LLN       0.146000
     63 H29         -0.0780    -0.8370     1.9780 h1         1 LLN      -0.007800
     64 H30         -1.5890    -0.0890     1.4440 h1         1 LLN      -0.007800
     65 H31         -0.5280     1.2640     2.9360 ho         1 LLN       0.389000
     66 H32          5.9050    -0.8810    -0.8300 h1         1 LLN       0.017200
     67 H33          5.9040     0.8880    -0.8380 h1         1 LLN       0.017200
     68 H34          5.8780     0.8510     1.6670 h1         1 LLN       0.036700
     69 H35          7.3270     0.1010     0.9830 h1         1 LLN       0.036700
     70 H36          6.5610    -4.2830     2.5510 hn         1 LLN       0.211500
     71 H37          4.8030    -0.7840     3.5110 h1         1 LLN       0.028200
     72 H38          3.8520    -1.3290     2.1030 h1         1 LLN       0.028200
     73 O2           4.1760     0.0060    -0.1420 os         1 LLN      -0.297900
     74 H4           4.1090    -3.4750     2.6810 h1         1 LLN       0.029700
     75 O3           7.6870    -2.4670     1.0880 o          1 LLN      -0.741500
@<TRIPOS>BOND
     1     1     4 1   
     2     1    29 1   
     3     1    36 1   
     4     1    37 1   
     5     2     3 ar  
     6     2     4 1   
     7     2    28 ar  
     8     3    26 ar  
     9     3    38 1   
    10     5    34 1   
    11     5    35 1   
    12     5    39 1   
    13     5    74 1   
    14     6    33 1   
    15     6    34 1   
    16     6    75 2   
    17     7    21 1   
    18     7    24 2   
    19     7    25 1   
    20     8     9 1   
    21     8    14 1   
    22     8    23 1   
    23     8    40 1   
    24     9    10 1   
    25     9    41 1   
    26     9    42 1   
    27    10    11 1   
    28    10    43 1   
    29    10    44 1   
    30    11    12 1   
    31    11    45 1   
    32    11    46 1   
    33    12    13 1   
    34    12    47 1   
    35    12    48 1   
    36    13    14 1   
    37    13    49 1   
    38    13    50 1   
    39    14    51 1   
    40    14    52 1   
    41    15    16 1   
    42    15    22 2   
    43    15    23 1   
    44    16    17 1   
    45    16    21 1   
    46    16    53 1   
    47    17    18 1   
    48    17    54 1   
    49    17    55 1   
    50    18    19 2   
    51    18    56 1   
    52    19    20 1   
    53    19    57 1   
    54    20    21 1   
    55    20    58 1   
    56    20    59 1   
    57    21    60 1   
    58    23    24 1   
    59    25    26 ar  
    60    25    27 ar  
    61    26    61 1   
    62    27    28 ar  
    63    27    62 1   
    64    28    73 1   
    65    29    30 1   
    66    29    63 1   
    67    29    64 1   
    68    30    65 1   
    69    31    32 1   
    70    31    66 1   
    71    31    67 1   
    72    31    73 1   
    73    32    33 1   
    74    32    68 1   
    75    32    69 1   
    76    33    35 1   
    77    34    70 1   
    78    35    71 1   
    79    35    72 1   
@<TRIPOS>SUBSTRUCTURE
     1 LLN         1 TEMP              0 ****  ****    0 ROOT
