@<TRIPOS>MOLECULE
LLT
   31    32     1     0     0
SMALL
bcc


@<TRIPOS>ATOM
      1 O4           0.0000     0.0000     0.0000 o          1 LLT      -0.659500
      2 C4           1.2190     0.0000     0.0000 c          1 LLT       0.617700
      3 C5           1.9320     0.0000     1.2230 cc         1 LLT      -0.284400
      4 C7           1.1950     0.0020     2.5380 c3         1 LLT       0.104100
      5 C6           3.2820    -0.0010     1.1950 cd         1 LLT      -0.091400
      6 N3           1.8990    -0.0070    -1.1640 ns         1 LLT      -0.124500
      7 C2           3.2450    -0.0090    -1.1620 c          1 LLT       0.588500
      8 O2           3.8450    -0.0150    -2.2200 o          1 LLT      -0.713500
      9 N1           3.9360    -0.0030    -0.0070 n          1 LLT       0.043000
     10 C1'          5.4000    -0.0040    -0.0380 c3         1 LLT       0.240500
     11 O4'          5.9310    -0.1060     1.3020 os         1 LLT      -0.398600
     12 C4'          7.2820    -0.5900     1.1400 c3         1 LLT       0.165100
     13 C5'          7.7800    -1.2200     2.4420 c3         1 LLT       0.224400
     14 O5'          7.9000    -0.2100     3.4450 oh         1 LLT      -0.582800
     15 C3'          7.1870    -1.6580     0.0270 c3         1 LLT       0.159100
     16 O3'          8.3430    -1.6080    -0.8120 oh         1 LLT      -0.573800
     17 C2'          5.9220    -1.2630    -0.7660 c3         1 LLT      -0.098400
     18 H7           1.9100     0.0080     3.3520 hc         1 LLT       0.010033
     19 H7A          0.5770    -0.8840     2.6070 hc         1 LLT       0.010033
     20 H7B          0.5700     0.8850     2.6000 hc         1 LLT       0.010033
     21 H6           3.8460     0.0010     2.1200 h4         1 LLT       0.157000
     22 HN3          1.4010    -0.0120    -2.0320 hn         1 LLT       0.206500
     23 H1'          5.7730     0.8910    -0.5210 h2         1 LLT       0.048700
     24 H4'          7.9350     0.2170     0.8310 h1         1 LLT       0.048700
     25 H5'          7.0750    -1.9740     2.7720 h1         1 LLT      -0.005800
     26 H5'A         8.7470    -1.6790     2.2750 h1         1 LLT      -0.005800
     27 HO5'         8.2830    -0.5820     4.2220 ho         1 LLT       0.392000
     28 H3'          7.0680    -2.6440     0.4600 h1         1 LLT       0.012700
     29 HO3'         8.5970    -2.4850    -1.0510 ho         1 LLT       0.395000
     30 H2'          5.1860    -2.0570    -0.7230 hc         1 LLT       0.052200
     31 H2'A         6.1770    -1.0270    -1.7920 hc         1 LLT       0.052200
@<TRIPOS>BOND
     1     1     2 2   
     2     2     3 1   
     3     2     6 1   
     4     3     4 1   
     5     3     5 2   
     6     4    18 1   
     7     4    19 1   
     8     4    20 1   
     9     5     9 1   
    10     5    21 1   
    11     6     7 1   
    12     6    22 1   
    13     7     8 2   
    14     7     9 1   
    15     9    10 1   
    16    10    11 1   
    17    10    17 1   
    18    10    23 1   
    19    11    12 1   
    20    12    13 1   
    21    12    15 1   
    22    12    24 1   
    23    13    14 1   
    24    13    25 1   
    25    13    26 1   
    26    14    27 1   
    27    15    16 1   
    28    15    17 1   
    29    15    28 1   
    30    16    29 1   
    31    17    30 1   
    32    17    31 1   
@<TRIPOS>SUBSTRUCTURE
     1 LLT         1 TEMP              0 ****  ****    0 ROOT
