@<TRIPOS>MOLECULE
molecule
   38    40     1     0     0
SMALL
bcc


@<TRIPOS>ATOM
      1 N1           0.0000     0.0000     0.0000 nv         1 LLX      -0.976200
      2 C2           1.3970     0.0000     0.0000 ca         1 LLX       0.140600
      3 C3           2.0910     0.0000     1.2020 ca         1 LLX      -0.141000
      4 C4           3.4710    -0.0000     1.2050 ca         1 LLX      -0.122000
      5 C5           4.1720    -0.0010     0.0010 cp         1 LLX      -0.038000
      6 C6           3.4790    -0.0010    -1.2070 ca         1 LLX      -0.107000
      7 C7           2.0960    -0.0050    -1.2090 ca         1 LLX       0.024600
      8 N8           1.3960    -0.0110    -2.4230 ns         1 LLX      -0.468100
      9 C9           1.8870     0.6540    -3.4870 c          1 LLX       0.673700
     10 O10          2.9770     1.1890    -3.4190 o          1 LLX      -0.599100
     11 C11          1.1020     0.7330    -4.7360 ca         1 LLX      -0.149600
     12 C12          1.6080     1.4190    -5.8410 ca         1 LLX      -0.085500
     13 C13          0.8700     1.4890    -7.0050 ca         1 LLX      -0.137500
     14 C14         -0.3700     0.8790    -7.0780 ca         1 LLX      -0.103000
     15 C15         -0.8770     0.1950    -5.9870 ca         1 LLX      -0.137500
     16 C16         -0.1470     0.1140    -4.8190 ca         1 LLX      -0.085500
     17 C17          5.6560     0.0000     0.0070 cp         1 LLX      -0.031000
     18 C18          6.3510     0.0000     1.2150 ca         1 LLX      -0.118500
     19 C19          7.7310    -0.0000     1.2140 ca         1 LLX      -0.128000
     20 C20          8.4240     0.0010     0.0160 ca         1 LLX      -0.129000
     21 C21          7.7400     0.0010    -1.1850 ca         1 LLX      -0.128000
     22 C22          6.3600    -0.0060    -1.1970 ca         1 LLX      -0.118500
     23 HN1         -0.5000     0.7780    -0.3810 hn         1 LLX       0.427300
     24 HN1A        -0.5000    -0.7890     0.3580 hn         1 LLX       0.427300
     25 H3           1.5480     0.0010     2.1400 ha         1 LLX       0.136000
     26 H4           4.0100    -0.0000     2.1450 ha         1 LLX       0.133000
     27 H6           4.0230    -0.0030    -2.1440 ha         1 LLX       0.169000
     28 HN8          0.5520    -0.5410    -2.5110 hn         1 LLX       0.328500
     29 H12          2.5780     1.8970    -5.7840 ha         1 LLX       0.141000
     30 H13          1.2620     2.0220    -7.8630 ha         1 LLX       0.135500
     31 H14         -0.9460     0.9370    -7.9940 ha         1 LLX       0.133000
     32 H15         -1.8470    -0.2830    -6.0520 ha         1 LLX       0.135500
     33 H16         -0.5450    -0.4210    -3.9660 ha         1 LLX       0.141000
     34 H18          5.8090    -0.0000     2.1530 ha         1 LLX       0.136500
     35 H19          8.2730    -0.0000     2.1520 ha         1 LLX       0.128500
     36 H20          9.5080     0.0030     0.0200 ha         1 LLX       0.127000
     37 H21          8.2880    -0.0010    -2.1200 ha         1 LLX       0.128500
     38 H22          5.8250    -0.0060    -2.1380 ha         1 LLX       0.136500
@<TRIPOS>BOND
     1     2     1 1
     2     1    23 1
     3     1    24 1
     4     3     2 ar
     5     2     7 ar
     6     4     3 ar
     7     3    25 1
     8     4     5 ar
     9     4    26 1
    10    17     5 1
    11     5     6 ar
    12     6     7 ar
    13     6    27 1
    14     7     8 1
    15     8     9 1
    16     8    28 1
    17    10     9 2
    18     9    11 1
    19    16    11 ar
    20    11    12 ar
    21    12    13 ar
    22    12    29 1
    23    14    13 ar
    24    13    30 1
    25    15    14 ar
    26    14    31 1
    27    16    15 ar
    28    15    32 1
    29    16    33 1
    30    22    17 ar
    31    17    18 ar
    32    19    18 ar
    33    18    34 1
    34    20    19 ar
    35    19    35 1
    36    21    20 ar
    37    20    36 1
    38    21    22 ar
    39    21    37 1
    40    22    38 1
@<TRIPOS>SUBSTRUCTURE
     1 LLX         1 TEMP              0 ****  ****    0 ROOT
