@<TRIPOS>MOLECULE
LM3
   43    46     1     0     0
SMALL
bcc


@<TRIPOS>ATOM
      1 C3           0.0000     0.0000     0.0000 c3         1 LM3       0.209100
      2 N2           1.4650     0.0000     0.0000 nh         1 LM3      -0.469300
      3 C1           2.1970     0.0000     1.2690 c3         1 LM3       0.209100
      4 C4           2.1600    -0.0010    -1.2040 ca         1 LM3       0.490200
      5 N9           3.4810    -0.1070    -1.2050 nb         1 LM3      -0.366000
      6 N8           4.1720    -0.1190    -2.2870 nb         1 LM3      -0.220000
      7 C7           3.6090    -0.0230    -3.4850 cp         1 LM3       0.337800
      8 C6           2.2080     0.0930    -3.5900 cq         1 LM3      -0.057300
      9 C10          1.5450     0.2010    -4.9110 cq         1 LM3      -0.010000
     10 C21          0.5450    -0.7010    -5.2890 ca         1 LM3      -0.208300
     11 C20         -0.0470    -0.5650    -6.5280 ca         1 LM3       0.404700
     12 N19          0.3200     0.3980    -7.3510 nb         1 LM3      -0.580000
     13 C18          1.2600     1.2690    -7.0340 ca         1 LM3       0.404700
     14 C17          1.8980     1.2090    -5.8140 ca         1 LM3      -0.208300
     15 C5           1.4670     0.1040    -2.4090 ca         1 LM3      -0.263300
     16 C11          4.4480    -0.0410    -4.7030 cp         1 LM3      -0.120500
     17 C16          5.5400     0.8530    -4.8330 ca         1 LM3      -0.014000
     18 C25          5.8510     1.7730    -3.8220 ca         1 LM3      -0.086000
     19 C24          6.9080     2.6170    -3.9810 ca         1 LM3      -0.101000
     20 C23          7.6880     2.5800    -5.1350 ca         1 LM3      -0.098000
     21 C22          7.4150     1.6990    -6.1370 ca         1 LM3      -0.093000
     22 C15          6.3310     0.8130    -6.0070 ca         1 LM3      -0.037000
     23 C14          6.0210    -0.1110    -7.0200 ca         1 LM3      -0.083000
     24 C13          4.9660    -0.9590    -6.8720 ca         1 LM3      -0.103000
     25 C12          4.1790    -0.9340    -5.7260 ca         1 LM3      -0.092000
     26 H1          -0.3610     0.8850    -0.5100 h1         1 LM3       0.010533
     27 H2          -0.3610    -0.0000     1.0210 h1         1 LM3       0.010533
     28 H3          -0.3610    -0.8840    -0.5110 h1         1 LM3       0.010533
     29 H4           1.4970    -0.0880     2.0910 h1         1 LM3       0.010533
     30 H5           2.8840    -0.8370     1.2890 h1         1 LM3       0.010533
     31 H6           2.7530     0.9250     1.3650 h1         1 LM3       0.010533
     32 H7           0.2380    -1.4940    -4.6170 ha         1 LM3       0.122000
     33 H8          -0.8230    -1.2580    -6.8290 h4         1 LM3      -0.017900
     34 H9           1.5290     2.0460    -7.7400 h4         1 LM3      -0.017900
     35 H10          2.6690     1.9280    -5.5610 ha         1 LM3       0.122000
     36 H11          0.3870     0.1910    -2.4270 ha         1 LM3       0.134000
     37 H12          5.2540     1.8130    -2.9190 ha         1 LM3       0.122000
     38 H13          7.1460     3.3280    -3.1990 ha         1 LM3       0.101000
     39 H14          8.5230     3.2620    -5.2370 ha         1 LM3       0.100000
     40 H15          8.0290     1.6810    -7.0290 ha         1 LM3       0.105000
     41 H16          6.6220    -0.1470    -7.9210 ha         1 LM3       0.105000
     42 H17          4.7370    -1.6670    -7.6590 ha         1 LM3       0.103000
     43 H18          3.3450    -1.6200    -5.6330 ha         1 LM3       0.109000
@<TRIPOS>BOND
     1     1     2 1   
     2     1    26 1   
     3     1    27 1   
     4     1    28 1   
     5     2     3 1   
     6     2     4 1   
     7     3    29 1   
     8     3    30 1   
     9     3    31 1   
    10     4     5 ar  
    11     4    15 ar  
    12     5     6 ar  
    13     6     7 ar  
    14     7     8 2   
    15     7    16 1   
    16     8     9 1   
    17     8    15 1   
    18     9    10 1   
    19     9    14 2   
    20    10    11 ar  
    21    10    32 1   
    22    11    12 ar  
    23    11    33 1   
    24    12    13 ar  
    25    13    14 ar  
    26    13    34 1   
    27    14    35 1   
    28    15    36 1   
    29    16    17 ar  
    30    16    25 ar  
    31    17    18 ar  
    32    17    22 ar  
    33    18    19 ar  
    34    18    37 1   
    35    19    20 ar  
    36    19    38 1   
    37    20    21 ar  
    38    20    39 1   
    39    21    22 ar  
    40    21    40 1   
    41    22    23 ar  
    42    23    24 ar  
    43    23    41 1   
    44    24    25 ar  
    45    24    42 1   
    46    25    43 1   
@<TRIPOS>SUBSTRUCTURE
     1 LM3         1 TEMP              0 ****  ****    0 ROOT
