@<TRIPOS>MOLECULE
LM4
   43    46     1     0     0
SMALL
bcc


@<TRIPOS>ATOM
      1 C3           0.0000     0.0000     0.0000 c3         1 LM4       0.209600
      2 N2           1.4660     0.0000     0.0000 nh         1 LM4      -0.469300
      3 C1           2.1980     0.0000     1.2680 c3         1 LM4       0.209600
      4 C4           2.1600    -0.0000    -1.2040 ca         1 LM4       0.489200
      5 N9           3.4810    -0.1070    -1.2070 nb         1 LM4      -0.363000
      6 N8           4.1710    -0.1180    -2.2890 nb         1 LM4      -0.224000
      7 C7           3.6080    -0.0230    -3.4860 cp         1 LM4       0.339800
      8 C6           2.2080     0.0930    -3.5910 cq         1 LM4      -0.059300
      9 C10          1.5440     0.2010    -4.9120 cq         1 LM4      -0.010000
     10 C21          1.9870     1.1230    -5.8660 ca         1 LM4      -0.209800
     11 C20          1.3400     1.1890    -7.0830 ca         1 LM4       0.402700
     12 N19          0.3200     0.3990    -7.3520 nb         1 LM4      -0.579000
     13 C18         -0.1290    -0.4850    -6.4810 ca         1 LM4       0.402700
     14 C17          0.4620    -0.6220    -5.2420 ca         1 LM4      -0.209800
     15 C5           1.4660     0.1040    -2.4090 ca         1 LM4      -0.261300
     16 C11          4.4480    -0.0410    -4.7060 cp         1 LM4      -0.141500
     17 C16          5.7010     0.5450    -4.6850 ca         1 LM4      -0.058000
     18 C15          6.4940     0.5210    -5.8430 ca         1 LM4      -0.041000
     19 C25          7.7720     1.1050    -5.8600 ca         1 LM4      -0.083000
     20 C24          8.5160     1.0630    -7.0000 ca         1 LM4      -0.103000
     21 C23          8.0290     0.4500    -8.1510 ca         1 LM4      -0.097000
     22 C22          6.7960    -0.1260    -8.1710 ca         1 LM4      -0.091000
     23 C14          5.9990    -0.1040    -7.0150 ca         1 LM4      -0.032000
     24 C13          4.7190    -0.6900    -7.0040 ca         1 LM4      -0.091000
     25 C12          3.9680    -0.6570    -5.8750 ca         1 LM4      -0.110000
     26 H1          -0.3610    -0.0420     1.0200 h1         1 LM4       0.010033
     27 H2          -0.3610     0.9050    -0.4730 h1         1 LM4       0.010033
     28 H3          -0.3610    -0.8630    -0.5470 h1         1 LM4       0.010033
     29 H4           1.4960     0.0650     2.0910 h1         1 LM4       0.010033
     30 H5           2.8690     0.8500     1.2980 h1         1 LM4       0.010033
     31 H6           2.7710    -0.9150     1.3540 h1         1 LM4       0.010033
     32 H7           2.8240     1.7760    -5.6520 ha         1 LM4       0.125000
     33 H8           1.6760     1.9010    -7.8280 h4         1 LM4      -0.017400
     34 H9          -0.9690    -1.1160    -6.7450 h4         1 LM4      -0.017400
     35 H10          0.0890    -1.3490    -4.5320 ha         1 LM4       0.125000
     36 H11          0.3870     0.1910    -2.4260 ha         1 LM4       0.134000
     37 H12          6.1180     0.8980    -3.7500 ha         1 LM4       0.125000
     38 H13          8.1640     1.5860    -4.9720 ha         1 LM4       0.108000
     39 H14          9.5010     1.5140    -7.0110 ha         1 LM4       0.101000
     40 H15          8.6420     0.4310    -9.0450 ha         1 LM4       0.100000
     41 H16          6.4310    -0.6000    -9.0750 ha         1 LM4       0.106000
     42 H17          4.3350    -1.1690    -7.8970 ha         1 LM4       0.108000
     43 H18          2.9900    -1.1220    -5.8700 ha         1 LM4       0.121000
@<TRIPOS>BOND
     1     1     2 1   
     2     1    26 1   
     3     1    27 1   
     4     1    28 1   
     5     2     3 1   
     6     2     4 1   
     7     3    29 1   
     8     3    30 1   
     9     3    31 1   
    10     4     5 ar  
    11     4    15 ar  
    12     5     6 ar  
    13     6     7 ar  
    14     7     8 2   
    15     7    16 1   
    16     8     9 1   
    17     8    15 1   
    18     9    10 1   
    19     9    14 2   
    20    10    11 ar  
    21    10    32 1   
    22    11    12 ar  
    23    11    33 1   
    24    12    13 ar  
    25    13    14 ar  
    26    13    34 1   
    27    14    35 1   
    28    15    36 1   
    29    16    17 ar  
    30    16    25 ar  
    31    17    18 ar  
    32    17    37 1   
    33    18    19 ar  
    34    18    23 ar  
    35    19    20 ar  
    36    19    38 1   
    37    20    21 ar  
    38    20    39 1   
    39    21    22 ar  
    40    21    40 1   
    41    22    23 ar  
    42    22    41 1   
    43    23    24 ar  
    44    24    25 ar  
    45    24    42 1   
    46    25    43 1   
@<TRIPOS>SUBSTRUCTURE
     1 LM4         1 TEMP              0 ****  ****    0 ROOT
