@<TRIPOS>MOLECULE
molecule
   43    46     1     0     0
SMALL
bcc


@<TRIPOS>ATOM
      1 C3           0.0000     0.0000     0.0000 c3         1 LM4       0.232600
      2 N2           1.4660     0.0000     0.0000 nh         1 LM4      -0.826300
      3 C1           2.1980     0.0000     1.2680 c3         1 LM4       0.232600
      4 C4           2.1600    -0.0000    -1.2040 ca         1 LM4       0.633200
      5 N9           3.4810    -0.1070    -1.2070 nb         1 LM4      -0.385000
      6 N8           4.1710    -0.1180    -2.2890 nb         1 LM4      -0.266000
      7 C7           3.6080    -0.0230    -3.4860 cp         1 LM4       0.362800
      8 C6           2.2080     0.0930    -3.5910 cq         1 LM4      -0.075300
      9 C10          1.5440     0.2010    -4.9120 cq         1 LM4      -0.013000
     10 C21          1.9870     1.1230    -5.8660 ca         1 LM4      -0.235800
     11 C20          1.3400     1.1890    -7.0830 ca         1 LM4       0.416700
     12 N19          0.3200     0.3990    -7.3520 nb         1 LM4      -0.687000
     13 C18         -0.1290    -0.4850    -6.4810 ca         1 LM4       0.416700
     14 C17          0.4620    -0.6220    -5.2420 ca         1 LM4      -0.235800
     15 C5           1.4660     0.1040    -2.4090 ca         1 LM4      -0.262300
     16 C11          4.4480    -0.0410    -4.7060 cp         1 LM4      -0.142500
     17 C16          5.7010     0.5450    -4.6850 ca         1 LM4      -0.081000
     18 C15          6.4940     0.5210    -5.8430 ca         1 LM4      -0.043000
     19 C25          7.7720     1.1050    -5.8600 ca         1 LM4      -0.110000
     20 C24          8.5160     1.0630    -7.0000 ca         1 LM4      -0.129000
     21 C23          8.0290     0.4500    -8.1510 ca         1 LM4      -0.122000
     22 C22          6.7960    -0.1260    -8.1710 ca         1 LM4      -0.120000
     23 C14          5.9990    -0.1040    -7.0150 ca         1 LM4      -0.030000
     24 C13          4.7190    -0.6900    -7.0040 ca         1 LM4      -0.122000
     25 C12          3.9680    -0.6570    -5.8750 ca         1 LM4      -0.115000
     26 H1          -0.3610    -0.0420     1.0200 h1         1 LM4       0.041367
     27 H2          -0.3610     0.9050    -0.4730 h1         1 LM4       0.041367
     28 H3          -0.3610    -0.8630    -0.5470 h1         1 LM4       0.041367
     29 H4           1.4960     0.0650     2.0910 h1         1 LM4       0.041367
     30 H5           2.8690     0.8500     1.2980 h1         1 LM4       0.041367
     31 H6           2.7710    -0.9150     1.3540 h1         1 LM4       0.041367
     32 H7           2.8240     1.7760    -5.6520 ha         1 LM4       0.148500
     33 H8           1.6760     1.9010    -7.8280 h4         1 LM4       0.026600
     34 H9          -0.9690    -1.1160    -6.7450 h4         1 LM4       0.026600
     35 H10          0.0890    -1.3490    -4.5320 ha         1 LM4       0.148500
     36 H11          0.3870     0.1910    -2.4260 ha         1 LM4       0.151000
     37 H12          6.1180     0.8980    -3.7500 ha         1 LM4       0.154000
     38 H13          8.1640     1.5860    -4.9720 ha         1 LM4       0.135000
     39 H14          9.5010     1.5140    -7.0110 ha         1 LM4       0.129000
     40 H15          8.6420     0.4310    -9.0450 ha         1 LM4       0.128000
     41 H16          6.4310    -0.6000    -9.0750 ha         1 LM4       0.133000
     42 H17          4.3350    -1.1690    -7.8970 ha         1 LM4       0.136000
     43 H18          2.9900    -1.1220    -5.8700 ha         1 LM4       0.139000
@<TRIPOS>BOND
     1    20    21 ar
     2    20    19 ar
     3    21    22 ar
     4    19    18 ar
     5    22    23 ar
     6    18    23 ar
     7    18    17 ar
     8    23    24 ar
     9    17    16 ar
    10    24    25 ar
    11    16    25 ar
    12    16     7 1
    13     6     7 ar
    14     6     5 ar
    15     7     8 2
    16    10    11 ar
    17    10     9 2
    18     5     4 ar
    19    11    12 ar
    20     8     9 1
    21     8    15 1
    22     9    14 1
    23     4    15 ar
    24     4     2 1
    25    12    13 ar
    26     1     2 1
    27     2     3 1
    28    14    13 ar
    29     1    26 1
    30     1    27 1
    31     1    28 1
    32     3    29 1
    33     3    30 1
    34     3    31 1
    35    10    32 1
    36    11    33 1
    37    13    34 1
    38    14    35 1
    39    15    36 1
    40    17    37 1
    41    19    38 1
    42    20    39 1
    43    21    40 1
    44    22    41 1
    45    24    42 1
    46    25    43 1
@<TRIPOS>SUBSTRUCTURE
     1 LM4         1 TEMP              0 ****  ****    0 ROOT
