@<TRIPOS>MOLECULE
molecule
   36    37     1     0     0
SMALL
bcc


@<TRIPOS>ATOM
      1 CAN          0.0000     0.0000     0.0000 ca         1 LM5      -0.112500
      2 CAO          1.3820     0.0000     0.0000 ca         1 LM5      -0.130000
      3 CAP          2.0740     0.0000     1.1960 ca         1 LM5      -0.119000
      4 CAQ          1.3840    -0.0000     2.3940 ca         1 LM5      -0.130000
      5 CAR          0.0010     0.0000     2.3950 ca         1 LM5      -0.112500
      6 CAM         -0.6910    -0.0000     1.1980 ca         1 LM5      -0.120300
      7 CAL         -2.1980    -0.0000     1.1990 c3         1 LM5       0.158300
      8 N1          -2.6870    -1.3810     1.1980 ns         1 LM5      -0.579900
      9 C           -4.0120    -1.6270     1.1980 c          1 LM5       0.625100
     10 O           -4.8000    -0.7050     1.1990 o          1 LM5      -0.619100
     11 CA          -4.5140    -3.0480     1.1970 c3         1 LM5       0.074500
     12 N           -5.9260    -3.0820     0.7550 n7         1 LM5      -0.756200
     13 CD1         -6.7390    -3.0410     1.9970 c3         1 LM5       0.142500
     14 CAF         -8.1360    -3.6140     1.7460 c3         1 LM5      -0.072100
     15 CG          -5.9450    -3.9470     2.9720 c3         1 LM5       0.134100
     16 OD2         -6.2270    -5.3250     2.7260 oh         1 LM5      -0.560800
     17 CB          -4.4740    -3.6190     2.6260 c3         1 LM5       0.126100
     18 OG          -3.6800    -4.8060     2.6630 oh         1 LM5      -0.577800
     19 H1          -0.5420    -0.0000    -0.9380 ha         1 LM5       0.134500
     20 H2           1.9240     0.0000    -0.9380 ha         1 LM5       0.133000
     21 H3           3.1570    -0.0000     1.1960 ha         1 LM5       0.132000
     22 H4           1.9260     0.0000     3.3320 ha         1 LM5       0.133000
     23 H5          -0.5400     0.0000     3.3330 ha         1 LM5       0.134500
     24 H6          -2.5590     0.5110     0.3150 h1         1 LM5       0.059700
     25 H7          -2.5580     0.5100     2.0840 h1         1 LM5       0.059700
     26 H9          -3.9080    -3.6590     0.5390 h1         1 LM5       0.102700
     27 H10         -6.1220    -2.2720     0.2010 hn         1 LM5       0.370800
     28 H12         -6.7970    -2.0300     2.3800 h1         1 LM5       0.050700
     29 H13         -8.7290    -2.8920     1.1980 hc         1 LM5       0.043033
     30 H14         -8.6140    -3.8280     2.6950 hc         1 LM5       0.043033
     31 H15         -8.0540    -4.5270     1.1690 hc         1 LM5       0.043033
     32 H16         -6.1630    -3.6820     4.0000 h1         1 LM5       0.036700
     33 H17         -6.3310    -5.7770     3.5470 ho         1 LM5       0.395000
     34 H18         -4.0850    -2.8790     3.3140 h1         1 LM5       0.040700
     35 H19         -3.0890    -4.7670     3.3970 ho         1 LM5       0.396000
     36 H20         -2.0370    -2.1420     1.1680 hn         1 LM5       0.322500
@<TRIPOS>BOND
     1     1     2 ar
     2     1     6 ar
     3     2     3 ar
     4     3     4 ar
     5     4     5 ar
     6     5     6 ar
     7     6     7 1
     8     7     8 1
     9     8     9 1
    10     9    10 2
    11     9    11 1
    12    11    12 1
    13    11    17 1
    14    12    13 1
    15    13    14 1
    16    13    15 1
    17    15    16 1
    18    15    17 1
    19    17    18 1
    20     1    19 1
    21     2    20 1
    22     3    21 1
    23     4    22 1
    24     5    23 1
    25     7    24 1
    26     7    25 1
    27    11    26 1
    28    12    27 1
    29    13    28 1
    30    14    29 1
    31    14    30 1
    32    14    31 1
    33    15    32 1
    34    16    33 1
    35    17    34 1
    36    18    35 1
    37     8    36 1
@<TRIPOS>SUBSTRUCTURE
     1 LM5         1 TEMP              0 ****  ****    0 ROOT
