@<TRIPOS>MOLECULE
LM5
   36    37     1     0     0
SMALL
bcc


@<TRIPOS>ATOM
      1 CAN          0.0000     0.0000     0.0000 ca         1 LM5      -0.083500
      2 CAO          1.3820     0.0000     0.0000 ca         1 LM5      -0.101000
      3 CAP          2.0740     0.0000     1.1960 ca         1 LM5      -0.090000
      4 CAQ          1.3840    -0.0000     2.3940 ca         1 LM5      -0.101000
      5 CAR          0.0010     0.0000     2.3950 ca         1 LM5      -0.083500
      6 CAM         -0.6910    -0.0000     1.1980 ca         1 LM5      -0.130300
      7 CAL         -2.1980    -0.0000     1.1990 c3         1 LM5       0.110300
      8 N1          -2.6870    -1.3810     1.1980 ns         1 LM5      -0.187900
      9 C           -4.0120    -1.6270     1.1980 c          1 LM5       0.544100
     10 O           -4.8000    -0.7050     1.1990 o          1 LM5      -0.656100
     11 CA          -4.5140    -3.0480     1.1970 c3         1 LM5       0.034500
     12 N           -5.9260    -3.0820     0.7550 n7         1 LM5      -0.552200
     13 CD1         -6.7390    -3.0410     1.9970 c3         1 LM5       0.101500
     14 CAF         -8.1360    -3.6140     1.7460 c3         1 LM5       0.017900
     15 CG          -5.9450    -3.9470     2.9720 c3         1 LM5       0.172100
     16 OD2         -6.2270    -5.3250     2.7260 oh         1 LM5      -0.541800
     17 CB          -4.4740    -3.6190     2.6260 c3         1 LM5       0.167100
     18 OG          -3.6800    -4.8060     2.6630 oh         1 LM5      -0.556800
     19 H1          -0.5420    -0.0000    -0.9380 ha         1 LM5       0.107500
     20 H2           1.9240     0.0000    -0.9380 ha         1 LM5       0.105500
     21 H3           3.1570    -0.0000     1.1960 ha         1 LM5       0.104000
     22 H4           1.9260     0.0000     3.3320 ha         1 LM5       0.105500
     23 H5          -0.5400     0.0000     3.3330 ha         1 LM5       0.107500
     24 H6          -2.5590     0.5110     0.3150 h1         1 LM5       0.030200
     25 H7          -2.5580     0.5100     2.0840 h1         1 LM5       0.030200
     26 H9          -3.9080    -3.6590     0.5390 h1         1 LM5       0.064700
     27 H10         -6.1220    -2.2720     0.2010 hn         1 LM5       0.276800
     28 H12         -6.7970    -2.0300     2.3800 h1         1 LM5       0.030700
     29 H13         -8.7290    -2.8920     1.1980 hc         1 LM5       0.008700
     30 H14         -8.6140    -3.8280     2.6950 hc         1 LM5       0.008700
     31 H15         -8.0540    -4.5270     1.1690 hc         1 LM5       0.008700
     32 H16         -6.1630    -3.6820     4.0000 h1         1 LM5       0.001700
     33 H17         -6.3310    -5.7770     3.5470 ho         1 LM5       0.380000
     34 H18         -4.0850    -2.8790     3.3140 h1         1 LM5       0.004700
     35 H19         -3.0890    -4.7670     3.3970 ho         1 LM5       0.380000
     36 H20         -2.0370    -2.1420     1.1680 hn         1 LM5       0.182500
@<TRIPOS>BOND
     1     1     2 ar  
     2     1     6 ar  
     3     1    19 1   
     4     2     3 ar  
     5     2    20 1   
     6     3     4 ar  
     7     3    21 1   
     8     4     5 ar  
     9     4    22 1   
    10     5     6 ar  
    11     5    23 1   
    12     6     7 1   
    13     7     8 1   
    14     7    24 1   
    15     7    25 1   
    16     8     9 1   
    17     8    36 1   
    18     9    10 2   
    19     9    11 1   
    20    11    12 1   
    21    11    17 1   
    22    11    26 1   
    23    12    13 1   
    24    12    27 1   
    25    13    14 1   
    26    13    15 1   
    27    13    28 1   
    28    14    29 1   
    29    14    30 1   
    30    14    31 1   
    31    15    16 1   
    32    15    17 1   
    33    15    32 1   
    34    16    33 1   
    35    17    18 1   
    36    17    34 1   
    37    18    35 1   
@<TRIPOS>SUBSTRUCTURE
     1 LM5         1 TEMP              0 ****  ****    0 ROOT
