@<TRIPOS>MOLECULE
molecule
   56    55     1     0     0
SMALL
bcc


@<TRIPOS>ATOM
      1 C01          0.0000     0.0000     0.0000 c2         1 LM8      -0.236200
      2 C02          1.5060     0.0000     0.0000 c3         1 LM8       0.266000
      3 C03          2.0090     0.0000     1.4210 c2         1 LM8      -0.206200
      4 C04          2.8510    -0.9220     1.8160 c2         1 LM8      -0.169200
      5 C05          3.4410    -1.8840     0.8180 c3         1 LM8       0.242000
      6 C06          4.9440    -1.8460     0.9110 c2         1 LM8      -0.240200
      7 C07          5.6170    -2.9540     1.1010 c2         1 LM8      -0.267200
      8 C08          4.9040    -4.2820     1.0790 c3         1 LM8       0.093700
      9 C09          4.9040    -4.8750     2.4640 c2         1 LM8      -0.256200
     10 C10          3.7820    -5.2840     3.0020 c2         1 LM8      -0.224200
     11 C11         -0.6560     0.8830    -0.7120 c2         1 LM8      -0.191200
     12 C12          0.0840     1.7720    -1.6770 c3         1 LM8       0.005800
     13 C13         -0.5900     1.7080    -3.0490 c3         1 LM8      -0.071400
     14 C14          2.5150    -5.2920     2.1870 c3         1 LM8       0.058800
     15 C15          1.8960    -6.6910     2.2190 c3         1 LM8      -0.096400
     16 C16          0.6090    -6.6990     1.3910 c3         1 LM8      -0.091400
     17 C17         -0.0090    -8.0980     1.4220 c3         1 LM8      -0.081400
     18 C18         -1.2950    -8.1060     0.5940 c3         1 LM8      -0.093100
     19 C19          0.1630     2.6120    -4.0290 c3         1 LM8      -0.193400
     20 C20         -0.5010     2.5480    -5.3810 c          1 LM8       0.891600
     21 O21         -0.0100     3.2650    -6.4040 o          1 LM8      -0.849800
     22 O22         -1.4750     1.8520    -5.5440 o          1 LM8      -0.849800
     23 C23          5.6220    -5.2300     0.1180 c3         1 LM8      -0.124100
     24 H1           0.5510    -0.5140    -0.7790 ha         1 LM8       0.002000
     25 H2           1.8670     0.8840    -0.5110 hc         1 LM8       0.051200
     26 H3           1.8670    -0.8840    -0.5110 hc         1 LM8       0.051200
     27 H4           2.5830     0.4560     0.6230 ha         1 LM8       0.035000
     28 H5           2.3160    -1.8130     1.5130 ha         1 LM8       0.030000
     29 H6           3.0910    -2.8860     1.0330 hc         1 LM8       0.036200
     30 H7           3.1330    -1.6010    -0.1810 hc         1 LM8       0.036200
     31 H8           4.4410    -2.0870    -0.0180 ha         1 LM8      -0.014000
     32 H9           5.1080    -3.3370     1.9780 ha         1 LM8       0.201000
     33 H10          3.8830    -4.1370     0.7480 hc         1 LM8       0.069700
     34 H11          4.9270    -5.5000     1.5800 ha         1 LM8       0.104000
     35 H12          3.1800    -4.3920     2.8810 ha         1 LM8       0.072000
     36 H13         -0.1910     1.8000    -0.3700 ha         1 LM8       0.121000
     37 H14          1.1110     1.4370    -1.7620 hc         1 LM8       0.041700
     38 H15          0.0660     2.7930    -1.3130 hc         1 LM8       0.041700
     39 H16         -0.5720     0.6870    -3.4120 hc         1 LM8       0.061700
     40 H17         -1.6160     2.0430    -2.9640 hc         1 LM8       0.061700
     41 H18          1.8140    -4.5770     2.6020 hc         1 LM8       0.047200
     42 H19          2.7430    -5.0210     1.1630 hc         1 LM8       0.047200
     43 H20          1.6680    -6.9610     3.2420 hc         1 LM8       0.054700
     44 H21          2.5960    -7.4050     1.8040 hc         1 LM8       0.054700
     45 H22          0.8370    -6.4270     0.3670 hc         1 LM8       0.042700
     46 H23         -0.0920    -5.9850     1.8060 hc         1 LM8       0.042700
     47 H24         -0.2360    -8.3690     2.4460 hc         1 LM8       0.039700
     48 H25          0.6920    -8.8120     1.0070 hc         1 LM8       0.039700
     49 H26         -1.0670    -7.8400    -0.4310 hc         1 LM8       0.034367
     50 H27         -1.7360    -9.0960     0.6210 hc         1 LM8       0.034367
     51 H28         -1.9950    -7.3890     1.0060 hc         1 LM8       0.034367
     52 H29          0.1450     3.6320    -3.6660 hc         1 LM8       0.026700
     53 H30          1.1890     2.2760    -4.1140 hc         1 LM8       0.026700
     54 H32          6.5180    -5.6140     0.5920 hc         1 LM8       0.051700
     55 H33          5.8920    -4.6940    -0.7840 hc         1 LM8       0.051700
     56 H34          4.9650    -6.0540    -0.1340 hc         1 LM8       0.051700
@<TRIPOS>BOND
     1    22    20 1
     2    13    19 1
     3    13    12 1
     4    19    20 1
     5    11    12 1
     6    11     1 2
     7    20    21 1
     8     1     2 1
     9     3     4 2
    10     3     2 1
    11     4     5 1
    12     5     6 1
    13     6     7 2
    14     7     8 1
    15     8    23 1
    16     8     9 1
    17    14    15 1
    18    14    10 1
    19    16    17 1
    20    16    15 1
    21    17    18 1
    22     9    10 2
    23     1    24 1
    24     2    25 1
    25     2    26 1
    26     3    27 1
    27     4    28 1
    28     5    29 1
    29     5    30 1
    30     6    31 1
    31     7    32 1
    32     8    33 1
    33     9    34 1
    34    10    35 1
    35    11    36 1
    36    12    37 1
    37    12    38 1
    38    13    39 1
    39    13    40 1
    40    14    41 1
    41    14    42 1
    42    15    43 1
    43    15    44 1
    44    16    45 1
    45    16    46 1
    46    17    47 1
    47    17    48 1
    48    18    49 1
    49    18    50 1
    50    18    51 1
    51    19    52 1
    52    19    53 1
    53    23    54 1
    54    23    55 1
    55    23    56 1
@<TRIPOS>SUBSTRUCTURE
     1 LM8         1 TEMP              0 ****  ****    0 ROOT
