@<TRIPOS>MOLECULE
LM8
   56    55     1     0     0
SMALL
bcc


@<TRIPOS>ATOM
      1 C01         0.2560    0.3610    0.9510 c2        1 LM8     -0.213200
      2 C02         1.5450   -0.3070    1.2510 c3        1 LM8     -0.019000
      3 C03         2.1680    0.1160    2.5280 c2        1 LM8     -0.150200
      4 C04         3.3800   -0.2840    2.9300 c2        1 LM8     -0.191200
      5 C05         4.2570   -1.1770    2.1340 c3        1 LM8     -0.021000
      6 C06         5.1720   -1.9940    2.9660 c2        1 LM8     -0.159200
      7 C07         5.7630   -3.1280    2.5800 c2        1 LM8     -0.166200
      8 C08         5.6130   -3.7900    1.2500 c3        1 LM8     -0.003300
      9 C09         5.0410   -5.1580    1.4240 c2        1 LM8     -0.185200
     10 C10         3.8070   -5.5350    1.0790 c2        1 LM8     -0.147200
     11 C11        -0.3890    0.1990   -0.2110 c2        1 LM8     -0.136200
     12 C12         0.1150   -0.6400   -1.3240 c3        1 LM8     -0.062200
     13 C13        -0.9570   -0.9830   -2.3390 c3        1 LM8     -0.064400
     14 C14         2.7740   -4.6640    0.4710 c3        1 LM8     -0.056200
     15 C15         1.4440   -5.3770    0.3250 c3        1 LM8     -0.076400
     16 C16         0.3710   -4.4500   -0.2060 c3        1 LM8     -0.084400
     17 C17        -0.9670   -5.1560   -0.2870 c3        1 LM8     -0.067400
     18 C18        -2.0540   -4.2370   -0.7810 c3        1 LM8     -0.122100
     19 C19        -0.3940   -1.7990   -3.4780 c3        1 LM8     -0.198400
     20 C20        -1.5220   -2.3590   -4.3610 c         1 LM8      0.908600
     21 O21        -1.5650   -2.0020   -5.5710 o         1 LM8     -0.849800
     22 O22        -2.3440   -3.1670   -3.8330 o         1 LM8     -0.849800
     23 C23         6.9670   -3.8770    0.5630 c3        1 LM8     -0.081100
     24 H1         -0.1630    1.0000    1.7430 ha        1 LM8      0.109000
     25 H2          2.2660   -0.1170    0.4040 hc        1 LM8      0.058200
     26 H3          1.3790   -1.4250    1.2760 hc        1 LM8      0.058200
     27 H4          1.5710    0.7930    3.1610 ha        1 LM8      0.118000
     28 H5          3.7890    0.0570    3.8950 ha        1 LM8      0.113000
     29 H6          3.6230   -1.8480    1.4880 hc        1 LM8      0.058700
     30 H7          4.8720   -0.5430    1.4330 hc        1 LM8      0.058700
     31 H8          5.3640   -1.6010    3.9800 ha        1 LM8      0.114000
     32 H9          6.4310   -3.6650    3.2750 ha        1 LM8      0.113000
     33 H10         4.9290   -3.1810    0.5900 hc        1 LM8      0.062700
     34 H11         5.7350   -5.8840    1.8790 ha        1 LM8      0.111000
     35 H12         3.4970   -6.5820    1.2480 ha        1 LM8      0.116000
     36 H13        -1.3530    0.7030   -0.3900 ha        1 LM8      0.122000
     37 H14         0.5480   -1.5950   -0.9130 hc        1 LM8      0.040200
     38 H15         0.9560   -0.0960   -1.8360 hc        1 LM8      0.040200
     39 H16        -1.7750   -1.5730   -1.8420 hc        1 LM8      0.045700
     40 H17        -1.4160   -0.0430   -2.7400 hc        1 LM8      0.045700
     41 H18         3.1220   -4.3150   -0.5400 hc        1 LM8      0.052200
     42 H19         2.6320   -3.7440    1.1030 hc        1 LM8      0.052200
     43 H20         1.1270   -5.7830    1.3220 hc        1 LM8      0.034200
     44 H21         1.5600   -6.2520   -0.3670 hc        1 LM8      0.034200
     45 H22         0.6550   -4.0750   -1.2260 hc        1 LM8      0.047700
     46 H23         0.2830   -3.5520    0.4620 hc        1 LM8      0.047700
     47 H24        -0.8800   -6.0370   -0.9760 hc        1 LM8      0.021200
     48 H25        -1.2350   -5.5560    0.7270 hc        1 LM8      0.021200
     49 H26        -3.0370   -4.7650   -0.7650 hc        1 LM8      0.054033
     50 H27        -1.8610   -3.8970   -1.8370 hc        1 LM8      0.054033
     51 H28        -2.1300   -3.3330   -0.1310 hc        1 LM8      0.054033
     52 H29         0.1900   -2.6650   -3.0720 hc        1 LM8      0.020200
     53 H30         0.2940   -1.1750   -4.1000 hc        1 LM8      0.020200
     54 H32         6.8590   -4.3740   -0.4310 hc        1 LM8      0.032700
     55 H33         7.3860   -2.8540    0.4090 hc        1 LM8      0.032700
     56 H34         7.6860   -4.4670    1.1800 hc        1 LM8      0.032700
@<TRIPOS>BOND
     1    1    2 1   
     2    1   11 2   
     3    1   24 1   
     4    2    3 1   
     5    2   25 1   
     6    2   26 1   
     7    3    4 2   
     8    3   27 1   
     9    4    5 1   
    10    4   28 1   
    11    5    6 1   
    12    5   29 1   
    13    5   30 1   
    14    6    7 2   
    15    6   31 1   
    16    7    8 1   
    17    7   32 1   
    18    8    9 1   
    19    8   23 1   
    20    8   33 1   
    21    9   10 2   
    22    9   34 1   
    23   10   14 1   
    24   10   35 1   
    25   11   12 1   
    26   11   36 1   
    27   12   13 1   
    28   12   37 1   
    29   12   38 1   
    30   13   19 1   
    31   13   39 1   
    32   13   40 1   
    33   14   15 1   
    34   14   41 1   
    35   14   42 1   
    36   15   16 1   
    37   15   43 1   
    38   15   44 1   
    39   16   17 1   
    40   16   45 1   
    41   16   46 1   
    42   17   18 1   
    43   17   47 1   
    44   17   48 1   
    45   18   49 1   
    46   18   50 1   
    47   18   51 1   
    48   19   20 1   
    49   19   52 1   
    50   19   53 1   
    51   20   21 1   
    52   20   22 1   
    53   23   54 1   
    54   23   55 1   
    55   23   56 1   
@<TRIPOS>SUBSTRUCTURE
     1 LM8         1 TEMP              0 ****  ****    0 ROOT
