@<TRIPOS>MOLECULE
LMC
   41    44     1     0     0
SMALL
bcc


@<TRIPOS>ATOM
      1 C18          0.0000     0.0000     0.0000 c2         1 LMC       0.314000
      2 C17          1.3940     0.0000     0.0000 c2         1 LMC      -0.442000
      3 C16          2.0860     0.0000     1.1950 c3         1 LMC       0.131000
      4 C20          1.3330    -0.0000     2.5010 c3         1 LMC      -0.110000
      5 C15          3.4830     0.0010     1.1950 c2         1 LMC      -0.176000
      6 C14          4.1730     0.0010     2.3870 c2         1 LMC      -0.086000
      7 C13          5.5750     0.0010     2.3860 c3         1 LMC      -0.237000
      8 C8           6.2540     0.0010     3.5610 c2         1 LMC      -0.124000
      9 C7           5.6530    -0.0050     4.9510 c3         1 LMC       0.040000
     10 C11          4.8020     1.2470     5.1720 c3         1 LMC      -0.106000
     11 C10          4.8150    -1.2680     5.1650 c3         1 LMC      -0.106000
     12 C2           6.8500    -0.0020     5.8730 ca         1 LMC      -0.132000
     13 C3           7.9770     0.0050     5.0600 ca         1 LMC      -0.098000
     14 N9           7.6090     0.0020     3.7170 nh         1 LMC       0.243000
     15 C12          8.5620     0.0020     2.6040 c3         1 LMC      -0.105000
     16 C1           6.9700    -0.0060     7.2440 ca         1 LMC      -0.039000
     17 C6           8.2250    -0.0020     7.8270 ca         1 LMC      -0.122000
     18 C5           9.3550     0.0050     7.0300 ca         1 LMC      -0.066000
     19 C4           9.2380     0.0090     5.6560 ca         1 LMC      -0.122000
     20 O1          -0.6090    -0.0000    -1.0530 o          1 LMC      -0.371000
     21 H18         -0.5410     0.0370     0.9380 h4         1 LMC       0.033000
     22 H17          1.9350    -0.0150    -0.9380 ha         1 LMC       0.146000
     23 H20          0.5330    -0.7290     2.4560 hc         1 LMC       0.063333
     24 H20A         2.0100    -0.2560     3.3070 hc         1 LMC       0.063333
     25 H15          2.8710     0.8750     1.3830 DU         1 LMC       0.079000
     26 H14          4.7840     0.8760     2.2020 DU         1 LMC       0.185000
     27 H13          6.1160    -0.0450     1.4490 hc         1 LMC       0.147000
     28 H11          3.8270     1.1060     4.7220 hc         1 LMC       0.053833
     29 H11A         5.2900     2.1000     4.7160 hc         1 LMC       0.053833
     30 H11B         4.6870     1.4220     6.2350 hc         1 LMC       0.053833
     31 H10          4.6590    -1.4220     6.2260 hc         1 LMC       0.053833
     32 H10A         3.8570    -1.1530     4.6720 hc         1 LMC       0.053833
     33 H10B         5.3350    -2.1220     4.7480 hc         1 LMC       0.053833
     34 H12          8.3930     0.8740     1.9840 h1         1 LMC       0.060667
     35 H12A         9.5720     0.0270     2.9940 h1         1 LMC       0.060667
     36 H12B         8.4250    -0.8950     2.0110 h1         1 LMC       0.060667
     37 H1           6.0840    -0.0120     7.8660 ha         1 LMC       0.107000
     38 H6           8.3230    -0.0060     8.9060 ha         1 LMC       0.109000
     39 H5          10.3370     0.0080     7.4860 ha         1 LMC       0.106000
     40 H4          10.1280     0.0140     5.0380 ha         1 LMC       0.108000
     41 H21          0.9170     0.9840     2.6780 hc         1 LMC       0.063333
@<TRIPOS>BOND
     1     1     2 1   
     2     1    20 1   
     3     1    21 1   
     4     2     3 1   
     5     2    22 1   
     6     3     4 1   
     7     3     5 1   
     8     3    25 1   
     9     4    23 1   
    10     4    24 1   
    11     4    41 1   
    12     5     6 1   
    13     5    25 1   
    14     6     7 1   
    15     6    26 1   
    16     7     8 1   
    17     7    26 1   
    18     7    27 1   
    19     8     9 1   
    20     8    14 1   
    21     9    10 1   
    22     9    11 1   
    23     9    12 1   
    24    10    28 1   
    25    10    29 1   
    26    10    30 1   
    27    11    31 1   
    28    11    32 1   
    29    11    33 1   
    30    12    13 1   
    31    12    16 1   
    32    13    14 1   
    33    13    19 1   
    34    14    15 1   
    35    15    34 1   
    36    15    35 1   
    37    15    36 1   
    38    16    17 1   
    39    16    37 1   
    40    17    18 1   
    41    17    38 1   
    42    18    19 1   
    43    18    39 1   
    44    19    40 1   
@<TRIPOS>SUBSTRUCTURE
     1 LMC         1 TEMP              0 ****  ****    0 ROOT
