@<TRIPOS>MOLECULE
molecule
   41    42     1     0     0
SMALL
bcc


@<TRIPOS>ATOM
      1 C18          0.0000     0.0000     0.0000 c          1 LMC       0.547100
      2 C17          1.3940     0.0000     0.0000 ce         1 LMC      -0.512200
      3 C16          2.0860     0.0000     1.1950 cf         1 LMC       0.158800
      4 C20          1.3330    -0.0000     2.5010 c3         1 LMC      -0.151900
      5 C15          3.4830     0.0010     1.1950 cf         1 LMC      -0.216000
      6 C14          4.1730     0.0010     2.3870 ce         1 LMC       0.006000
      7 C13          5.5750     0.0010     2.3860 ce         1 LMC      -0.286000
      8 C8           6.2540     0.0010     3.5610 c2         1 LMC       0.201800
      9 C7           5.6530    -0.0050     4.9510 c3         1 LMC       0.000500
     10 C11          4.8020     1.2470     5.1720 c3         1 LMC      -0.077600
     11 C10          4.8150    -1.2680     5.1650 c3         1 LMC      -0.077600
     12 C2           6.8500    -0.0020     5.8730 ca         1 LMC      -0.135300
     13 C3           7.9770     0.0050     5.0600 ca         1 LMC       0.141600
     14 N9           7.6090     0.0020     3.7170 nh         1 LMC      -0.529800
     15 C12          8.5620     0.0020     2.6040 c3         1 LMC       0.217100
     16 C1           6.9700    -0.0060     7.2440 ca         1 LMC      -0.075000
     17 C6           8.2250    -0.0020     7.8270 ca         1 LMC      -0.151000
     18 C5           9.3550     0.0050     7.0300 ca         1 LMC      -0.092000
     19 C4           9.2380     0.0090     5.6560 ca         1 LMC      -0.154000
     20 O1          -0.6090    -0.0000    -1.0530 o          1 LMC      -0.558100
     21 H18         -0.5410     0.0290     0.9380 h4         1 LMC      -0.077800
     22 H17          0.7830    -0.8740     0.1870 ha         1 LMC       0.203000
     23 H20          1.8420     0.6400     3.2110 hc         1 LMC       0.058700
     24 H20A         0.3280     0.3690     2.3380 hc         1 LMC       0.058700
     25 H15          4.0240     0.0010     0.2570 ha         1 LMC       0.166000
     26 H14          3.6320     0.0000     3.3260 ha         1 LMC       0.129000
     27 H13          6.1170     0.0060     1.4480 ha         1 LMC       0.150000
     28 H11          5.1320     1.7530     6.0720 hc         1 LMC       0.048367
     29 H11A         4.9110     1.9120     4.3240 hc         1 LMC       0.048367
     30 H11B         3.7620     0.9630     5.2780 hc         1 LMC       0.048367
     31 H10          3.7650    -1.0020     5.2050 hc         1 LMC       0.048367
     32 H10A         5.1040    -1.7400     6.0960 hc         1 LMC       0.048367
     33 H10B         4.9820    -1.9550     4.3450 hc         1 LMC       0.048367
     34 H12          8.5410     0.9660     2.1110 h1         1 LMC       0.053700
     35 H12A         9.5590    -0.1880     2.9830 h1         1 LMC       0.053700
     36 H12B         8.2910    -0.7720     1.8960 h1         1 LMC       0.053700
     37 H1           6.0840    -0.0120     7.8660 ha         1 LMC       0.137000
     38 H6           8.3230    -0.0060     8.9060 ha         1 LMC       0.139000
     39 H5          10.3370     0.0080     7.4860 ha         1 LMC       0.138000
     40 H4          10.1280     0.0140     5.0380 ha         1 LMC       0.134000
     41 H21          1.2890    -1.0100     2.8920 hc         1 LMC       0.058700
@<TRIPOS>BOND
     1     1     2 1
     2     1    20 2
     3     1    21 1
     4     2    22 1
     5     3     2 2
     6     3     5 1
     7     4     3 1
     8     4    23 1
     9     4    24 1
    10     5    25 1
    11     6     5 2
    12     6     7 1
    13     6    26 1
    14     7    27 1
    15     8     7 2
    16     8    14 1
    17     9     8 1
    18     9    12 1
    19    10     9 1
    20    10    28 1
    21    10    29 1
    22    10    30 1
    23    11     9 1
    24    11    31 1
    25    11    32 1
    26    11    33 1
    27    12    13 ar
    28    13    19 ar
    29    13    14 1
    30    14    15 1
    31    15    34 1
    32    15    35 1
    33    15    36 1
    34    16    12 ar
    35    16    17 ar
    36    16    37 1
    37    17    18 ar
    38    17    38 1
    39    18    19 ar
    40    18    39 1
    41    19    40 1
    42     4    41 1
@<TRIPOS>SUBSTRUCTURE
     1 LMC         1 TEMP              0 ****  ****    0 ROOT
