@<TRIPOS>MOLECULE
LMD
   87    88     1     0     0
SMALL
bcc


@<TRIPOS>ATOM
      1 CBK         0.0310   -0.0340    0.0690 c3        1 LMD     -0.092100
      2 CBJ         1.5360    0.0440    0.0810 c3        1 LMD     -0.080400
      3 CBI         2.0860   -0.0400    1.4890 c3        1 LMD     -0.079400
      4 CBH         3.5970    0.0390    1.4950 c3        1 LMD     -0.079400
      5 CBG         4.1460   -0.0460    2.9030 c3        1 LMD     -0.079400
      6 CBF         5.6580    0.0340    2.9090 c3        1 LMD     -0.079400
      7 CBE         6.2070   -0.0530    4.3170 c3        1 LMD     -0.079400
      8 CBD         7.7180    0.0280    4.3230 c3        1 LMD     -0.079400
      9 CBC         8.2680   -0.0590    5.7310 c3        1 LMD     -0.079400
     10 CBB         9.7790    0.0240    5.7370 c3        1 LMD     -0.079400
     11 CBA        10.3280   -0.0640    7.1450 c3        1 LMD     -0.078400
     12 CAZ        11.8390    0.0230    7.1500 c3        1 LMD     -0.078400
     13 CAY        12.3840   -0.0650    8.5590 c3        1 LMD     -0.084400
     14 CAX        13.8990    0.0260    8.5440 c3        1 LMD      0.136400
     15 OAS        14.3180   -0.0670    9.9120 os        1 LMD     -0.423600
     16 CAM        15.7140    0.0240   10.0800 c3        1 LMD      0.307900
     17 CAN        15.9850    0.0480   11.5950 c3        1 LMD      0.086100
     18 OAT        15.6450    1.3110   12.1400 oh        1 LMD     -0.604800
     19 CAO        17.4850   -0.1530   11.8680 c3        1 LMD      0.121100
     20 OAU        17.6760   -0.3590   13.2590 oh        1 LMD     -0.605800
     21 OAV        16.1900   -1.1870    9.5060 os        1 LMD     -0.446600
     22 CAQ        17.6020   -1.3420    9.6480 c3        1 LMD      0.107100
     23 CAR        17.9470   -2.6430    8.9150 c3        1 LMD      0.140400
     24 OAW        17.5170   -2.5950    7.5720 oh        1 LMD     -0.594800
     25 CAP        17.9990   -1.4070   11.1360 c3        1 LMD      0.126100
     26 O1         19.4270   -1.4380   11.1310 os        1 LMD     -0.431600
     27 C1         20.0220   -1.8660   12.3420 c3        1 LMD      0.336900
     28 O5         19.8520   -3.2670   12.4090 os        1 LMD     -0.449600
     29 C5         20.5030   -4.0290   11.3870 c3        1 LMD      0.102100
     30 C6         20.2430   -5.4970   11.7400 c3        1 LMD      0.140400
     31 O6         18.8670   -5.8000   11.6800 oh        1 LMD     -0.595800
     32 C4         22.0090   -3.7320   11.3510 c3        1 LMD      0.126100
     33 O4         22.5530   -4.4520   10.2600 oh        1 LMD     -0.592800
     34 C3         22.2150   -2.2190   11.1610 c3        1 LMD      0.066100
     35 O3         23.6140   -1.9830   11.1980 oh        1 LMD     -0.607800
     36 C2         21.5140   -1.4810   12.3090 c3        1 LMD      0.098100
     37 O2         21.6030   -0.0790   12.1430 oh        1 LMD     -0.576800
     38 H1         -0.3530    0.0290   -0.9770 hc        1 LMD      0.032700
     39 H2         -0.4120    0.8050    0.6590 hc        1 LMD      0.032700
     40 H3         -0.3180   -0.9970    0.5160 hc        1 LMD      0.032700
     41 H4          1.9610   -0.7920   -0.5360 hc        1 LMD      0.038700
     42 H5          1.8670    1.0050   -0.3930 hc        1 LMD      0.038700
     43 H6          1.7570   -1.0020    1.9640 hc        1 LMD      0.039700
     44 H7          1.6630    0.7950    2.1070 hc        1 LMD      0.039700
     45 H8          3.9260    1.0010    1.0210 hc        1 LMD      0.039700
     46 H9          4.0200   -0.7950    0.8760 hc        1 LMD      0.039700
     47 H10         3.7230    0.7880    3.5230 hc        1 LMD      0.039700
     48 H11         3.8180   -1.0080    3.3770 hc        1 LMD      0.039700
     49 H12         5.9860    0.9970    2.4360 hc        1 LMD      0.039700
     50 H13         6.0810   -0.7990    2.2890 hc        1 LMD      0.039700
     51 H14         5.7830    0.7800    4.9380 hc        1 LMD      0.039700
     52 H15         5.8800   -1.0160    4.7900 hc        1 LMD      0.039700
     53 H16         8.0450    0.9920    3.8510 hc        1 LMD      0.039700
     54 H17         8.1420   -0.8040    3.7010 hc        1 LMD      0.039700
     55 H18         7.8420    0.7720    6.3530 hc        1 LMD      0.040200
     56 H19         7.9430   -1.0240    6.2020 hc        1 LMD      0.040200
     57 H20        10.2040   -0.8070    5.1140 hc        1 LMD      0.040200
     58 H21        10.1040    0.9890    5.2660 hc        1 LMD      0.040200
     59 H22        10.0050   -1.0300    7.6150 hc        1 LMD      0.041700
     60 H23         9.9010    0.7660    7.7680 hc        1 LMD      0.041700
     61 H24        12.2660   -0.8070    6.5270 hc        1 LMD      0.042200
     62 H25        12.1620    0.9890    6.6790 hc        1 LMD      0.042200
     63 H26        11.9650    0.7620    9.1880 hc        1 LMD      0.055200
     64 H27        12.0750   -1.0330    9.0340 hc        1 LMD      0.055200
     65 H28        14.3530   -0.8160    7.9590 h1        1 LMD      0.038700
     66 H29        14.2440    1.0050    8.1180 h1        1 LMD      0.038700
     67 H30        16.1520    0.9170    9.5550 h2        1 LMD      0.055700
     68 H31        15.3890   -0.7640   12.0960 h1        1 LMD      0.078700
     69 H32        14.6990    1.4310   11.9840 ho        1 LMD      0.424000
     70 H33        18.0650    0.7520   11.5350 h1        1 LMD      0.070700
     71 H34        17.3290    0.4270   13.7020 ho        1 LMD      0.425000
     72 H35        18.1250   -0.4740    9.1580 h1        1 LMD      0.066700
     73 H36        19.0640   -2.7510    8.8660 h1        1 LMD      0.063700
     74 H37        17.4920   -3.5200    9.4460 h1        1 LMD      0.063700
     75 H38        16.5580   -2.4840    7.5850 ho        1 LMD      0.411000
     76 H39        17.5930   -2.3320   11.6270 h1        1 LMD      0.082700
     77 H40        19.5040   -1.4610   13.2560 h2        1 LMD      0.126700
     78 H41        20.0400   -3.7780   10.3930 h1        1 LMD      0.076700
     79 H42        20.7320   -6.1500   10.9690 h1        1 LMD      0.062200
     80 H43        20.6510   -5.7240   12.7610 h1        1 LMD      0.062200
     81 H44        18.4220   -5.2210   12.3130 ho        1 LMD      0.410000
     82 H45        22.5020   -4.0620   12.3070 h1        1 LMD      0.057700
     83 H46        23.4760   -4.1750   10.1860 ho        1 LMD      0.422000
     84 H47        21.7810   -1.8910   10.1760 h1        1 LMD      0.081700
     85 H48        23.7620   -1.1330   10.7670 ho        1 LMD      0.411000
     86 H49        21.9710   -1.7880   13.2920 h1        1 LMD      0.062700
     87 H50        22.5210    0.1550   12.3320 ho        1 LMD      0.404000
@<TRIPOS>BOND
     1    1    2 1   
     2    1   38 1   
     3    1   39 1   
     4    1   40 1   
     5    2    3 1   
     6    2   41 1   
     7    2   42 1   
     8    3    4 1   
     9    3   43 1   
    10    3   44 1   
    11    4    5 1   
    12    4   45 1   
    13    4   46 1   
    14    5    6 1   
    15    5   47 1   
    16    5   48 1   
    17    6    7 1   
    18    6   49 1   
    19    6   50 1   
    20    7    8 1   
    21    7   51 1   
    22    7   52 1   
    23    8    9 1   
    24    8   53 1   
    25    8   54 1   
    26    9   10 1   
    27    9   55 1   
    28    9   56 1   
    29   10   11 1   
    30   10   57 1   
    31   10   58 1   
    32   11   12 1   
    33   11   59 1   
    34   11   60 1   
    35   12   13 1   
    36   12   61 1   
    37   12   62 1   
    38   13   14 1   
    39   13   63 1   
    40   13   64 1   
    41   14   15 1   
    42   14   65 1   
    43   14   66 1   
    44   15   16 1   
    45   16   17 1   
    46   16   21 1   
    47   16   67 1   
    48   17   18 1   
    49   17   19 1   
    50   17   68 1   
    51   18   69 1   
    52   19   20 1   
    53   19   25 1   
    54   19   70 1   
    55   20   71 1   
    56   21   22 1   
    57   22   23 1   
    58   22   25 1   
    59   22   72 1   
    60   23   24 1   
    61   23   73 1   
    62   23   74 1   
    63   24   75 1   
    64   25   26 1   
    65   25   76 1   
    66   26   27 1   
    67   27   28 1   
    68   27   36 1   
    69   27   77 1   
    70   28   29 1   
    71   29   30 1   
    72   29   32 1   
    73   29   78 1   
    74   30   31 1   
    75   30   79 1   
    76   30   80 1   
    77   31   81 1   
    78   32   33 1   
    79   32   34 1   
    80   32   82 1   
    81   33   83 1   
    82   34   35 1   
    83   34   36 1   
    84   34   84 1   
    85   35   85 1   
    86   36   37 1   
    87   36   86 1   
    88   37   87 1   
@<TRIPOS>SUBSTRUCTURE
     1 LMD         1 TEMP              0 ****  ****    0 ROOT
