@<TRIPOS>MOLECULE
molecule
   87    88     1     0     0
SMALL
bcc


@<TRIPOS>ATOM
      1 CBK          0.0000     0.0000     0.0000 c3         1 LMD      -0.092100
      2 CBJ          1.5300     0.0000     0.0000 c3         1 LMD      -0.084400
      3 CBI          2.0410     0.0000     1.4420 c3         1 LMD      -0.081400
      4 CBH          3.5710    -0.0010     1.4410 c3         1 LMD      -0.082400
      5 CBG          4.0810    -0.0010     2.8840 c3         1 LMD      -0.082400
      6 CBF          5.6120    -0.0010     2.8830 c3         1 LMD      -0.082400
      7 CBE          6.1210    -0.0010     4.3250 c3         1 LMD      -0.082400
      8 CBD          7.6520    -0.0020     4.3240 c3         1 LMD      -0.082400
      9 CBC          8.1620    -0.0010     5.7670 c3         1 LMD      -0.082400
     10 CBB          9.6930    -0.0020     5.7660 c3         1 LMD      -0.082400
     11 CBA         10.2030    -0.0020     7.2080 c3         1 LMD      -0.080400
     12 CAZ         11.7340    -0.0020     7.2080 c3         1 LMD      -0.080400
     13 CAY         12.2430    -0.0020     8.6500 c3         1 LMD      -0.081400
     14 CAX         13.7740    -0.0020     8.6490 c3         1 LMD       0.136400
     15 OAS         14.2500    -0.0020     9.9960 os         1 LMD      -0.408600
     16 CAM         15.6750    -0.0030    10.1090 c3         1 LMD       0.335900
     17 CAN         16.0710     0.1220    11.5820 c3         1 LMD       0.097100
     18 OAT         15.6030     1.3690    12.0980 oh         1 LMD      -0.599800
     19 CAO         17.5980     0.0610    11.6990 c3         1 LMD       0.115100
     20 OAU         17.9730     0.1050    13.0780 oh         1 LMD      -0.610800
     21 OAV         16.1950    -1.2240     9.5790 os         1 LMD      -0.428600
     22 CAQ         17.6200    -1.3170     9.6180 c3         1 LMD       0.166100
     23 CAR         18.0620    -2.6460     9.0030 c3         1 LMD       0.148400
     24 OAW         17.7060    -2.6720     7.6190 oh         1 LMD      -0.605800
     25 CAP         18.0940    -1.2460    11.0720 c3         1 LMD       0.113100
     26 O1          19.5230    -1.2800    11.1110 os         1 LMD      -0.425600
     27 C1          20.0590    -1.7660    12.3440 c3         1 LMD       0.320900
     28 O5          19.8460    -3.1760    12.4320 os         1 LMD      -0.419600
     29 C5          20.4380    -3.9240    11.3680 c3         1 LMD       0.139100
     30 C6          20.1240    -5.4100    11.5510 c3         1 LMD       0.149400
     31 O6          18.7160    -5.6180    11.4210 oh         1 LMD      -0.604800
     32 C4          21.9550    -3.7170    11.3830 c3         1 LMD       0.108100
     33 O4          22.5440    -4.4170    10.2850 oh         1 LMD      -0.602800
     34 C3          22.2610    -2.2220    11.2590 c3         1 LMD       0.113100
     35 O3          23.6710    -2.0130    11.3460 oh         1 LMD      -0.610800
     36 C2          21.5600    -1.4720    12.3980 c3         1 LMD       0.123100
     37 O2          21.7790    -0.0690    12.2510 oh         1 LMD      -0.585800
     38 H1          -0.3610    -0.8850     0.5100 hc         1 LMD       0.032367
     39 H2          -0.3610     0.8840     0.5110 hc         1 LMD       0.032367
     40 H3          -0.3610     0.0010    -1.0210 hc         1 LMD       0.032367
     41 H4           1.8910    -0.8840    -0.5110 hc         1 LMD       0.039700
     42 H5           1.8910     0.8840    -0.5110 hc         1 LMD       0.039700
     43 H6           1.6790    -0.8840     1.9530 hc         1 LMD       0.040700
     44 H7           1.6800     0.8850     1.9520 hc         1 LMD       0.040700
     45 H8           3.9330     0.8840     0.9310 hc         1 LMD       0.040700
     46 H9           3.9320    -0.8850     0.9300 hc         1 LMD       0.040700
     47 H10          3.7200     0.8830     3.3950 hc         1 LMD       0.040700
     48 H11          3.7200    -0.8860     3.3940 hc         1 LMD       0.040700
     49 H12          5.9730    -0.8850     2.3720 hc         1 LMD       0.040700
     50 H13          5.9720     0.8840     2.3730 hc         1 LMD       0.040700
     51 H14          5.7600    -0.8860     4.8360 hc         1 LMD       0.040700
     52 H15          5.7610     0.8830     4.8360 hc         1 LMD       0.040700
     53 H16          8.0130    -0.8860     3.8140 hc         1 LMD       0.041200
     54 H17          8.0140     0.8830     3.8130 hc         1 LMD       0.041200
     55 H18          7.8010    -0.8860     6.2780 hc         1 LMD       0.041200
     56 H19          7.8010     0.8830     6.2780 hc         1 LMD       0.041200
     57 H20         10.0540     0.8830     5.2550 hc         1 LMD       0.041200
     58 H21         10.0540    -0.8860     5.2550 hc         1 LMD       0.041200
     59 H22          9.8420    -0.8870     7.7190 hc         1 LMD       0.042200
     60 H23          9.8420     0.8820     7.7200 hc         1 LMD       0.042200
     61 H24         12.0950    -0.8860     6.6970 hc         1 LMD       0.043200
     62 H25         12.0940     0.8830     6.6970 hc         1 LMD       0.043200
     63 H26         11.8820     0.8820     9.1610 hc         1 LMD       0.051700
     64 H27         11.8830    -0.8870     9.1600 hc         1 LMD       0.051700
     65 H28         14.1360    -0.8860     8.1380 h1         1 LMD       0.036700
     66 H29         14.1350     0.8830     8.1390 h1         1 LMD       0.036700
     67 H30         16.0860     0.8330     9.5540 h2         1 LMD       0.041700
     68 H31         15.6340    -0.6950    12.1430 h1         1 LMD       0.068700
     69 H32         14.9910     1.2100    12.7990 ho         1 LMD       0.415000
     70 H33         18.0340     0.9020    11.1730 h1         1 LMD       0.061700
     71 H34         17.9560     0.9980    13.3800 ho         1 LMD       0.417000
     72 H35         18.0500    -0.4950     9.0600 h1         1 LMD       0.059700
     73 H36         17.5710    -3.4630     9.5180 h1         1 LMD       0.045700
     74 H37         19.1360    -2.7510     9.1020 h1         1 LMD       0.045700
     75 H38         18.0390    -3.4610     7.2230 ho         1 LMD       0.404000
     76 H39         17.6910    -2.0860    11.6250 h1         1 LMD       0.082700
     77 H40         19.5670    -1.2760    13.1750 h2         1 LMD       0.116700
     78 H41         20.0380    -3.5800    10.4220 h1         1 LMD       0.071700
     79 H42         20.6460    -5.9850    10.7960 h1         1 LMD       0.035700
     80 H43         20.4460    -5.7290    12.5350 h1         1 LMD       0.035700
     81 H44         18.5120    -6.5180    11.6140 ho         1 LMD       0.405000
     82 H45         22.3600    -4.0920    12.3150 h1         1 LMD       0.051700
     83 H46         23.3320    -4.8460    10.5720 ho         1 LMD       0.413000
     84 H47         21.8940    -1.8560    10.3080 h1         1 LMD       0.075700
     85 H48         23.9770    -1.5970    10.5570 ho         1 LMD       0.416000
     86 H49         21.9580    -1.8080    13.3480 h1         1 LMD       0.060700
     87 H50         22.3110     0.2430    12.9650 ho         1 LMD       0.408000
@<TRIPOS>BOND
     1    33    32 1
     2    31    30 1
     3    29    30 1
     4    29    32 1
     5    29    28 1
     6    32    34 1
     7    34    35 1
     8    34    36 1
     9    28    27 1
    10    37    36 1
    11    36    27 1
    12    27    26 1
    13    26    25 1
    14    20    19 1
    15    25    19 1
    16    25    22 1
    17    23    22 1
    18    23    24 1
    19    19    17 1
    20    22    21 1
    21    17    18 1
    22    17    16 1
    23    21    16 1
    24    16    15 1
    25    15    14 1
    26    14    13 1
    27    13    12 1
    28    12    11 1
    29    11    10 1
    30    10     9 1
    31     9     8 1
    32     8     7 1
    33     7     6 1
    34     6     5 1
    35     5     4 1
    36     4     3 1
    37     3     2 1
    38     2     1 1
    39     1    38 1
    40     1    39 1
    41     1    40 1
    42     2    41 1
    43     2    42 1
    44     3    43 1
    45     3    44 1
    46     4    45 1
    47     4    46 1
    48     5    47 1
    49     5    48 1
    50     6    49 1
    51     6    50 1
    52     7    51 1
    53     7    52 1
    54     8    53 1
    55     8    54 1
    56     9    55 1
    57     9    56 1
    58    10    57 1
    59    10    58 1
    60    11    59 1
    61    11    60 1
    62    12    61 1
    63    12    62 1
    64    13    63 1
    65    13    64 1
    66    14    65 1
    67    14    66 1
    68    16    67 1
    69    17    68 1
    70    18    69 1
    71    19    70 1
    72    20    71 1
    73    22    72 1
    74    23    73 1
    75    23    74 1
    76    24    75 1
    77    25    76 1
    78    27    77 1
    79    29    78 1
    80    30    79 1
    81    30    80 1
    82    31    81 1
    83    32    82 1
    84    33    83 1
    85    34    84 1
    86    35    85 1
    87    36    86 1
    88    37    87 1
@<TRIPOS>SUBSTRUCTURE
     1 LMD         1 TEMP              0 ****  ****    0 ROOT
