@<TRIPOS>MOLECULE
molecule
  141   141     1     0     0
SMALL
bcc


@<TRIPOS>ATOM
      1 C1           0.0000     0.0000     0.0000 c3         1 LMG       0.324900
      2 O1          -0.4740    -0.0340    -1.3470 os         1 LMG      -0.347600
      3 C2           1.5310     0.0000     0.0000 c3         1 LMG       0.132100
      4 O2           2.0090    -1.1680    -0.6700 oh         1 LMG      -0.594800
      5 C3           2.0310     0.0000     1.4490 c3         1 LMG       0.104100
      6 O3           3.4510     0.1500     1.4700 oh         1 LMG      -0.594800
      7 C4           1.3790     1.1730     2.1910 c3         1 LMG       0.098100
      8 O4           1.8490     2.4070     1.6460 oh         1 LMG      -0.574800
      9 C5          -0.1400     1.0860     2.0260 c3         1 LMG       0.141100
     10 C6          -0.8000     2.2340     2.7910 c3         1 LMG       0.147400
     11 O6          -0.4810     1.1790     0.6440 os         1 LMG      -0.394600
     12 C7          -1.9010    -0.0340    -1.2820 c3         1 LMG       0.101400
     13 C8          -2.4760    -0.0690    -2.6980 c3         1 LMG       0.159100
     14 C9          -2.0020     1.1620    -3.4720 c3         1 LMG       0.161400
     15 O7          -2.0220    -1.2700    -3.3760 os         1 LMG      -0.415900
     16 C10         -2.7430    -2.4000    -3.2960 c          1 LMG       0.636100
     17 O9          -3.7710    -2.4160    -2.6620 o          1 LMG      -0.563000
     18 C11         -2.2710    -3.6460    -3.9990 c3         1 LMG      -0.123400
     19 C12         -3.2680    -4.7800    -3.7510 c3         1 LMG      -0.072400
     20 C13         -2.7880    -6.0460    -4.4640 c3         1 LMG      -0.084400
     21 C14         -3.7850    -7.1800    -4.2160 c3         1 LMG      -0.080400
     22 C15         -3.3060    -8.4450    -4.9270 c3         1 LMG      -0.082400
     23 C16         -4.3030    -9.5790    -4.6790 c3         1 LMG      -0.081400
     24 C17         -3.8230   -10.8450    -5.3920 c3         1 LMG      -0.082400
     25 C18         -4.8200   -11.9790    -5.1440 c3         1 LMG      -0.082400
     26 C19         -4.3410   -13.2450    -5.8580 c3         1 LMG      -0.082400
     27 C20         -5.3370   -14.3790    -5.6080 c3         1 LMG      -0.081400
     28 C21         -4.8580   -15.6440    -6.3220 c3         1 LMG      -0.082400
     29 C22         -5.8540   -16.7790    -6.0720 c3         1 LMG      -0.082400
     30 C23         -5.3750   -18.0440    -6.7870 c3         1 LMG      -0.082400
     31 C24         -6.3710   -19.1790    -6.5370 c3         1 LMG      -0.082400
     32 C25         -5.8920   -20.4440    -7.2510 c3         1 LMG      -0.081400
     33 C26         -6.8880   -21.5790    -7.0020 c3         1 LMG      -0.084400
     34 C27         -6.4090   -22.8440    -7.7150 c3         1 LMG      -0.092100
     35 O8          -0.5530     1.1640    -3.5380 os         1 LMG      -0.404900
     36 C28          0.0890     2.1570    -4.1740 c          1 LMG       0.637100
     37 O10         -0.5400     3.0490    -4.6900 o          1 LMG      -0.564000
     38 C29          1.5950     2.1580    -4.2420 c3         1 LMG      -0.122400
     39 C30          2.0690     3.3900    -5.0160 c3         1 LMG      -0.073400
     40 C31          3.5970     3.3920    -5.0860 c3         1 LMG      -0.084400
     41 C32          4.0700     4.6240    -5.8590 c3         1 LMG      -0.080400
     42 C33          5.5990     4.6250    -5.9290 c3         1 LMG      -0.082400
     43 C34          6.0730     5.8580    -6.7020 c3         1 LMG      -0.081400
     44 C35          7.6010     5.8600    -6.7720 c3         1 LMG      -0.081400
     45 C36          8.0750     7.0910    -7.5460 c3         1 LMG      -0.081400
     46 C37          9.6030     7.0930    -7.6170 c3         1 LMG      -0.082400
     47 C38         10.0770     8.3250    -8.3890 c3         1 LMG      -0.082400
     48 C39         11.6050     8.3270    -8.4600 c3         1 LMG      -0.081400
     49 C40         12.0800     9.5580    -9.2330 c3         1 LMG      -0.082400
     50 C41         13.6070     9.5610    -9.3040 c3         1 LMG      -0.081400
     51 C42         14.0810    10.7930   -10.0780 c3         1 LMG      -0.082400
     52 C43         15.6090    10.7940   -10.1460 c3         1 LMG      -0.081400
     53 C44         16.0830    12.0260   -10.9200 c3         1 LMG      -0.084400
     54 C45         17.6120    12.0280   -10.9910 c3         1 LMG      -0.092100
     55 HC1         -0.3580    -0.8720     0.5340 h2         1 LMG       0.035700
     56 HC2          1.8910     0.8870    -0.5060 h1         1 LMG       0.082700
     57 HO2          2.8710    -1.0030    -1.0130 ho         1 LMG       0.414000
     58 HC3          1.7520    -0.9310     1.9280 h1         1 LMG       0.047700
     59 HO3          3.8210    -0.4490     2.0970 ho         1 LMG       0.404000
     60 HC4          1.6300     1.1170     3.2440 h1         1 LMG       0.037700
     61 HO4          2.4050     2.8370     2.2740 ho         1 LMG       0.404000
     62 HC5         -0.4900     0.1390     2.4170 h1         1 LMG       0.050700
     63 HO5         -2.6350     2.6900     3.2960 ho         1 LMG       0.404000
     64 HC61        -0.4500     3.1800     2.3960 h1         1 LMG       0.036700
     65 HC62        -0.5420     2.1630     3.8410 h1         1 LMG       0.036700
     66 HC71        -2.2370    -0.9060    -0.7340 h1         1 LMG       0.054200
     67 HC72        -2.2400     0.8630    -0.7760 h1         1 LMG       0.054200
     68 HC8         -3.5580    -0.0700    -2.6490 h1         1 LMG       0.085700
     69 HC91        -2.4100     1.1360    -4.4750 h1         1 LMG       0.058700
     70 HC92        -2.3420     2.0590    -2.9670 h1         1 LMG       0.058700
     71 H111        -2.1990    -3.4550    -5.0630 hc         1 LMG       0.074200
     72 H112        -1.2980    -3.9300    -3.6170 hc         1 LMG       0.074200
     73 H121        -4.2400    -4.4970    -4.1340 hc         1 LMG       0.057700
     74 H122        -3.3400    -4.9710    -2.6870 hc         1 LMG       0.057700
     75 H131        -2.7160    -5.8560    -5.5280 hc         1 LMG       0.041200
     76 H132        -1.8150    -6.3300    -4.0810 hc         1 LMG       0.041200
     77 H141        -3.8570    -7.3700    -3.1510 hc         1 LMG       0.043700
     78 H142        -4.7570    -6.8960    -4.5990 hc         1 LMG       0.043700
     79 H151        -3.2330    -8.2550    -5.9910 hc         1 LMG       0.040700
     80 H152        -2.3330    -8.7290    -4.5440 hc         1 LMG       0.040700
     81 H161        -4.3750    -9.7700    -3.6150 hc         1 LMG       0.041700
     82 H162        -5.2750    -9.2960    -5.0620 hc         1 LMG       0.041700
     83 H171        -2.8500   -11.1290    -5.0090 hc         1 LMG       0.040700
     84 H172        -3.7510   -10.6550    -6.4560 hc         1 LMG       0.040700
     85 H181        -4.8910   -12.1700    -4.0800 hc         1 LMG       0.041200
     86 H182        -5.7930   -11.6950    -5.5260 hc         1 LMG       0.041200
     87 H191        -4.2690   -13.0540    -6.9220 hc         1 LMG       0.040700
     88 H192        -3.3670   -13.5280    -5.4760 hc         1 LMG       0.040700
     89 H201        -5.4080   -14.5700    -4.5440 hc         1 LMG       0.040700
     90 H202        -6.3100   -14.0960    -5.9900 hc         1 LMG       0.040700
     91 H211        -3.8850   -15.9280    -5.9400 hc         1 LMG       0.040700
     92 H212        -4.7870   -15.4540    -7.3860 hc         1 LMG       0.040700
     93 H221        -5.9250   -16.9700    -5.0080 hc         1 LMG       0.040700
     94 H222        -6.8270   -16.4950    -6.4540 hc         1 LMG       0.040700
     95 H231        -5.3040   -17.8540    -7.8510 hc         1 LMG       0.040700
     96 H232        -4.4020   -18.3280    -6.4050 hc         1 LMG       0.040700
     97 H241        -6.4420   -19.3700    -5.4730 hc         1 LMG       0.040700
     98 H242        -7.3440   -18.8950    -6.9190 hc         1 LMG       0.040700
     99 H251        -5.8210   -20.2540    -8.3150 hc         1 LMG       0.040700
    100 H252        -4.9190   -20.7280    -6.8700 hc         1 LMG       0.040700
    101 H261        -6.9590   -21.7690    -5.9380 hc         1 LMG       0.039700
    102 H262        -7.8610   -21.2950    -7.3840 hc         1 LMG       0.039700
    103 H271        -7.1150   -23.6470    -7.5390 hc         1 LMG       0.032367
    104 H272        -5.4360   -23.1280    -7.3330 hc         1 LMG       0.032367
    105 H273        -6.3380   -22.6530    -8.7790 hc         1 LMG       0.032367
    106 H291         2.0020     2.1830    -3.2390 hc         1 LMG       0.072200
    107 H292         1.9340     1.2620    -4.7470 hc         1 LMG       0.072200
    108 H301         1.6610     3.3650    -6.0190 hc         1 LMG       0.057700
    109 H302         1.7300     4.2860    -4.5110 hc         1 LMG       0.057700
    110 H311         4.0050     3.4170    -4.0830 hc         1 LMG       0.040700
    111 H312         3.9360     2.4960    -5.5920 hc         1 LMG       0.040700
    112 H321         3.7310     5.5200    -5.3540 hc         1 LMG       0.043700
    113 H322         3.6630     4.5990    -6.8630 hc         1 LMG       0.043700
    114 H331         5.9380     3.7290    -6.4350 hc         1 LMG       0.040700
    115 H332         6.0060     4.6500    -4.9260 hc         1 LMG       0.040700
    116 H341         5.6650     5.8330    -7.7050 hc         1 LMG       0.041700
    117 H342         5.7340     6.7530    -6.1960 hc         1 LMG       0.041700
    118 H351         7.9400     4.9630    -7.2780 hc         1 LMG       0.040700
    119 H352         8.0080     5.8840    -5.7690 hc         1 LMG       0.040700
    120 H361         7.7360     7.9880    -7.0410 hc         1 LMG       0.041200
    121 H362         7.6680     7.0670    -8.5500 hc         1 LMG       0.041200
    122 H371        10.0110     7.1180    -6.6130 hc         1 LMG       0.040700
    123 H372         9.9430     6.1970    -8.1220 hc         1 LMG       0.040700
    124 H381         9.6690     8.3000    -9.3930 hc         1 LMG       0.040700
    125 H382         9.7370     9.2210    -7.8840 hc         1 LMG       0.040700
    126 H391        12.0120     8.3510    -7.4560 hc         1 LMG       0.040700
    127 H392        11.9440     7.4310    -8.9650 hc         1 LMG       0.040700
    128 H401        11.7410    10.4550    -8.7270 hc         1 LMG       0.040700
    129 H402        11.6720     9.5340   -10.2360 hc         1 LMG       0.040700
    130 H411        13.9460     8.6650    -9.8090 hc         1 LMG       0.040700
    131 H412        14.0150     9.5860    -8.3010 hc         1 LMG       0.040700
    132 H421        13.7420    11.6890    -9.5730 hc         1 LMG       0.040700
    133 H422        13.6750    10.7680   -11.0810 hc         1 LMG       0.040700
    134 H431        15.9490     9.8980   -10.6510 hc         1 LMG       0.040700
    135 H432        16.0160    10.8190    -9.1430 hc         1 LMG       0.040700
    136 H441        15.6760    12.0010   -11.9240 hc         1 LMG       0.039700
    137 H442        15.7440    12.9220   -10.4150 hc         1 LMG       0.039700
    138 H451        17.9510    11.1310   -11.4950 hc         1 LMG       0.032367
    139 H452        17.9470    12.9000   -11.5390 hc         1 LMG       0.032367
    140 H453        18.0190    12.0530    -9.9870 hc         1 LMG       0.032367
    141 O5          -2.2190     2.1510     2.6430 oh         1 LMG      -0.599800
@<TRIPOS>BOND
     1     1     2 1
     2     1     3 1
     3     1    11 1
     4     1    55 1
     5     2    12 1
     6     3     4 1
     7     3     5 1
     8     3    56 1
     9     4    57 1
    10     5     6 1
    11     5     7 1
    12     5    58 1
    13     6    59 1
    14     7     8 1
    15     7     9 1
    16     7    60 1
    17     8    61 1
    18     9    10 1
    19     9    11 1
    20     9    62 1
    21   141    10 1
    22   141    63 1
    23    10    64 1
    24    10    65 1
    25    12    13 1
    26    12    66 1
    27    12    67 1
    28    13    14 1
    29    13    15 1
    30    13    68 1
    31    14    35 1
    32    14    69 1
    33    14    70 1
    34    15    16 1
    35    16    17 2
    36    16    18 1
    37    18    19 1
    38    18    71 1
    39    18    72 1
    40    19    20 1
    41    19    73 1
    42    19    74 1
    43    20    21 1
    44    20    75 1
    45    20    76 1
    46    21    22 1
    47    21    77 1
    48    21    78 1
    49    22    23 1
    50    22    79 1
    51    22    80 1
    52    23    24 1
    53    23    81 1
    54    23    82 1
    55    24    25 1
    56    24    83 1
    57    24    84 1
    58    25    26 1
    59    25    85 1
    60    25    86 1
    61    26    27 1
    62    26    87 1
    63    26    88 1
    64    27    28 1
    65    27    89 1
    66    27    90 1
    67    28    29 1
    68    28    91 1
    69    28    92 1
    70    29    30 1
    71    29    93 1
    72    29    94 1
    73    30    31 1
    74    30    95 1
    75    30    96 1
    76    31    32 1
    77    31    97 1
    78    31    98 1
    79    32    33 1
    80    32    99 1
    81    32   100 1
    82    33    34 1
    83    33   101 1
    84    33   102 1
    85    34   103 1
    86    34   104 1
    87    34   105 1
    88    35    36 1
    89    36    37 2
    90    36    38 1
    91    38    39 1
    92    38   106 1
    93    38   107 1
    94    39    40 1
    95    39   108 1
    96    39   109 1
    97    40    41 1
    98    40   110 1
    99    40   111 1
   100    41    42 1
   101    41   112 1
   102    41   113 1
   103    42    43 1
   104    42   114 1
   105    42   115 1
   106    43    44 1
   107    43   116 1
   108    43   117 1
   109    44    45 1
   110    44   118 1
   111    44   119 1
   112    45    46 1
   113    45   120 1
   114    45   121 1
   115    46    47 1
   116    46   122 1
   117    46   123 1
   118    47    48 1
   119    47   124 1
   120    47   125 1
   121    48    49 1
   122    48   126 1
   123    48   127 1
   124    49    50 1
   125    49   128 1
   126    49   129 1
   127    50    51 1
   128    50   130 1
   129    50   131 1
   130    51    52 1
   131    51   132 1
   132    51   133 1
   133    52    53 1
   134    52   134 1
   135    52   135 1
   136    53    54 1
   137    53   136 1
   138    53   137 1
   139    54   138 1
   140    54   139 1
   141    54   140 1
@<TRIPOS>SUBSTRUCTURE
     1 LMG         1 TEMP              0 ****  ****    0 ROOT
