@<TRIPOS>MOLECULE
LMG
  141   141     1     0     0
SMALL
bcc


@<TRIPOS>ATOM
      1 C1          1.4610   -0.6380   -2.3160 c3        1 LMG      0.305900
      2 O1          0.4900   -0.9530   -3.2900 os        1 LMG     -0.409600
      3 C2          2.7570   -1.3420   -2.7640 c3        1 LMG      0.086100
      4 O2          2.6680   -2.7390   -2.5540 oh        1 LMG     -0.605800
      5 C3          3.9280   -0.8310   -1.9140 c3        1 LMG      0.113100
      6 O3          5.1610   -1.3270   -2.4080 oh        1 LMG     -0.608800
      7 C4          4.0050    0.7010   -2.0040 c3        1 LMG      0.113100
      8 O4          4.3650    1.1340   -3.3070 oh        1 LMG     -0.611800
      9 C5          2.6450    1.3270   -1.6560 c3        1 LMG      0.116100
     10 C6          2.6110    2.8340   -1.9630 c3        1 LMG      0.142400
     11 O6          1.5760    0.7750   -2.4230 os        1 LMG     -0.438600
     12 C7         -0.8090   -0.4260   -3.0070 c3        1 LMG      0.107400
     13 C8         -1.7480   -0.8630   -4.1290 c3        1 LMG      0.130100
     14 C9         -1.6040   -0.0710   -5.4330 c3        1 LMG      0.134400
     15 O7         -1.5340   -2.2400   -4.4830 os        1 LMG     -0.424900
     16 C10        -2.0470   -3.1970   -3.6510 c         1 LMG      0.633100
     17 O9         -2.6590   -2.8390   -2.6420 o         1 LMG     -0.550000
     18 C11        -1.7510   -4.5850   -4.1280 c3        1 LMG     -0.126400
     19 C12        -2.9540   -5.4880   -3.9490 c3        1 LMG     -0.079400
     20 C13        -2.6080   -6.9180   -4.3020 c3        1 LMG     -0.078400
     21 C14        -3.8120   -7.8230   -4.1460 c3        1 LMG     -0.079400
     22 C15        -3.4690   -9.2560   -4.4950 c3        1 LMG     -0.079400
     23 C16        -4.6730  -10.1610   -4.3420 c3        1 LMG     -0.079400
     24 C17        -4.3300  -11.5930   -4.6910 c3        1 LMG     -0.079400
     25 C18        -5.5350  -12.4980   -4.5390 c3        1 LMG     -0.079400
     26 C19        -5.1920  -13.9300   -4.8890 c3        1 LMG     -0.079400
     27 C20        -6.3970  -14.8350   -4.7390 c3        1 LMG     -0.079400
     28 C21        -6.0550  -16.2670   -5.0890 c3        1 LMG     -0.079400
     29 C22        -7.2600  -17.1720   -4.9400 c3        1 LMG     -0.079400
     30 C23        -6.9180  -18.6040   -5.2910 c3        1 LMG     -0.079400
     31 C24        -8.1220  -19.5090   -5.1430 c3        1 LMG     -0.079400
     32 C25        -7.7810  -20.9410   -5.4930 c3        1 LMG     -0.079400
     33 C26        -8.9850  -21.8470   -5.3460 c3        1 LMG     -0.080400
     34 C27        -8.6500  -23.2740   -5.6950 c3        1 LMG     -0.092100
     35 O8         -0.2490    0.2490   -5.7330 os        1 LMG     -0.423900
     36 C28         0.2240    1.4870   -5.3760 c         1 LMG      0.646100
     37 O10        -0.5700    2.3020   -4.8990 o         1 LMG     -0.558000
     38 C29         1.6920    1.6260   -5.6220 c3        1 LMG     -0.134400
     39 C30         2.0730    3.0620   -5.9080 c3        1 LMG     -0.076400
     40 C31         3.5780    3.2280   -5.8770 c3        1 LMG     -0.083400
     41 C32         3.9740    4.6630   -6.1500 c3        1 LMG     -0.079400
     42 C33         5.4790    4.8310   -6.1230 c3        1 LMG     -0.078400
     43 C34         5.8760    6.2660   -6.3960 c3        1 LMG     -0.079400
     44 C35         7.3800    6.4330   -6.3720 c3        1 LMG     -0.078400
     45 C36         7.7780    7.8680   -6.6460 c3        1 LMG     -0.079400
     46 C37         9.2820    8.0350   -6.6220 c3        1 LMG     -0.078400
     47 C38         9.6790    9.4700   -6.8970 c3        1 LMG     -0.079400
     48 C39        11.1840    9.6370   -6.8740 c3        1 LMG     -0.079400
     49 C40        11.5810   11.0710   -7.1490 c3        1 LMG     -0.079400
     50 C41        13.0850   11.2380   -7.1270 c3        1 LMG     -0.078400
     51 C42        13.4830   12.6730   -7.4000 c3        1 LMG     -0.079400
     52 C43        14.9870   12.8400   -7.3790 c3        1 LMG     -0.079400
     53 C44        15.3870   14.2750   -7.6520 c3        1 LMG     -0.080400
     54 C45        16.8840   14.4460   -7.6320 c3        1 LMG     -0.092100
     55 HC1         1.1430   -0.9370   -1.2810 h2        1 LMG      0.054700
     56 HC2         2.9460   -1.1180   -3.8510 h1        1 LMG      0.082700
     57 HO2         1.9270   -3.0480   -3.0910 ho        1 LMG      0.428000
     58 HC3         3.7930   -1.1510   -0.8440 h1        1 LMG      0.061700
     59 HO3         5.0640   -2.2860   -2.4820 ho        1 LMG      0.431000
     60 HC4         4.7780    1.0720   -1.2720 h1        1 LMG      0.070700
     61 HO4         5.1330    0.6090   -3.5750 ho        1 LMG      0.429000
     62 HC5         2.4500    1.1370   -0.5640 h1        1 LMG      0.052700
     63 HO5         4.4560    3.1950   -2.4050 ho        1 LMG      0.415000
     64 HC61        2.3120    2.9850   -3.0360 h1        1 LMG      0.067200
     65 HC62        1.8750    3.3420   -1.2850 h1        1 LMG      0.067200
     66 HC71       -0.7640    0.6950   -2.9700 h1        1 LMG      0.065700
     67 HC72       -1.1680   -0.8420   -2.0270 h1        1 LMG      0.065700
     68 HC8        -2.8050   -0.7440   -3.7510 h1        1 LMG      0.078700
     69 HC91       -2.2310    0.8570   -5.3650 h1        1 LMG      0.079200
     70 HC92       -1.9270   -0.7090   -6.3010 h1        1 LMG      0.079200
     71 H111       -1.4350   -4.5570   -5.2040 hc        1 LMG      0.078700
     72 H112       -0.8840   -4.9680   -3.5240 hc        1 LMG      0.078700
     73 H121       -3.3100   -5.4290   -2.8860 hc        1 LMG      0.057700
     74 H122       -3.7940   -5.1290   -4.6010 hc        1 LMG      0.057700
     75 H131       -2.2350   -6.9670   -5.3590 hc        1 LMG      0.041200
     76 H132       -1.7780   -7.2800   -3.6400 hc        1 LMG      0.041200
     77 H141       -4.1870   -7.7720   -3.0900 hc        1 LMG      0.042700
     78 H142       -4.6420   -7.4630   -4.8100 hc        1 LMG      0.042700
     79 H151       -3.0920   -9.3060   -5.5500 hc        1 LMG      0.039700
     80 H152       -2.6400   -9.6170   -3.8300 hc        1 LMG      0.039700
     81 H161       -5.0500  -10.1100   -3.2860 hc        1 LMG      0.040700
     82 H162       -5.5020   -9.7990   -5.0060 hc        1 LMG      0.040700
     83 H171       -3.9520  -11.6430   -5.7460 hc        1 LMG      0.039700
     84 H172       -3.5020  -11.9550   -4.0250 hc        1 LMG      0.039700
     85 H181       -5.9120  -12.4480   -3.4840 hc        1 LMG      0.039700
     86 H182       -6.3630  -12.1360   -5.2040 hc        1 LMG      0.039700
     87 H191       -4.8140  -13.9800   -5.9440 hc        1 LMG      0.039700
     88 H192       -4.3650  -14.2930   -4.2230 hc        1 LMG      0.039700
     89 H201       -6.7750  -14.7860   -3.6840 hc        1 LMG      0.039700
     90 H202       -7.2240  -14.4730   -5.4040 hc        1 LMG      0.039700
     91 H211       -5.6760  -16.3170   -6.1440 hc        1 LMG      0.039700
     92 H212       -5.2280  -16.6300   -4.4230 hc        1 LMG      0.039700
     93 H221       -7.6380  -17.1230   -3.8850 hc        1 LMG      0.039700
     94 H222       -8.0870  -16.8090   -5.6050 hc        1 LMG      0.039700
     95 H231       -6.5380  -18.6530   -6.3450 hc        1 LMG      0.039700
     96 H232       -6.0910  -18.9670   -4.6250 hc        1 LMG      0.039700
     97 H241       -8.5020  -19.4600   -4.0880 hc        1 LMG      0.039700
     98 H242       -8.9500  -19.1450   -5.8080 hc        1 LMG      0.039700
     99 H251       -7.4020  -20.9900   -6.5480 hc        1 LMG      0.039700
    100 H252       -6.9540  -21.3050   -4.8280 hc        1 LMG      0.039700
    101 H261       -9.3640  -21.7950   -4.2910 hc        1 LMG      0.038700
    102 H262       -9.8120  -21.4800   -6.0110 hc        1 LMG      0.038700
    103 H271       -9.5510  -23.9240   -5.5800 hc        1 LMG      0.032700
    104 H272       -8.2930  -23.3490   -6.7500 hc        1 LMG      0.032700
    105 H273       -7.8450  -23.6650   -5.0260 hc        1 LMG      0.032700
    106 H291        1.9990    0.9560   -6.4670 hc        1 LMG      0.092200
    107 H292        2.2090    1.2600   -4.6860 hc        1 LMG      0.092200
    108 H301        1.5990    3.7350   -5.1440 hc        1 LMG      0.053700
    109 H302        1.6750    3.3690   -6.9100 hc        1 LMG      0.053700
    110 H311        4.0460    2.5550   -6.6430 hc        1 LMG      0.045700
    111 H312        3.9690    2.9080   -4.8730 hc        1 LMG      0.045700
    112 H321        3.5070    5.3350   -5.3820 hc        1 LMG      0.041700
    113 H322        3.5780    4.9800   -7.1510 hc        1 LMG      0.041700
    114 H331        5.9460    4.1590   -6.8910 hc        1 LMG      0.038700
    115 H332        5.8740    4.5150   -5.1220 hc        1 LMG      0.038700
    116 H341        5.4100    6.9370   -5.6270 hc        1 LMG      0.040700
    117 H342        5.4780    6.5820   -7.3960 hc        1 LMG      0.040700
    118 H351        7.8460    5.7610   -7.1390 hc        1 LMG      0.039200
    119 H352        7.7780    6.1170   -5.3710 hc        1 LMG      0.039200
    120 H361        7.3120    8.5400   -5.8770 hc        1 LMG      0.040200
    121 H362        7.3800    8.1840   -7.6460 hc        1 LMG      0.040200
    122 H371        9.7470    7.3620   -7.3900 hc        1 LMG      0.039200
    123 H372        9.6800    7.7190   -5.6220 hc        1 LMG      0.039200
    124 H381        9.2150   10.1420   -6.1280 hc        1 LMG      0.039700
    125 H382        9.2810    9.7860   -7.8970 hc        1 LMG      0.039700
    126 H391       11.6480    8.9640   -7.6420 hc        1 LMG      0.039700
    127 H392       11.5820    9.3210   -5.8740 hc        1 LMG      0.039700
    128 H401       11.1170   11.7440   -6.3800 hc        1 LMG      0.039700
    129 H402       11.1820   11.3870   -8.1480 hc        1 LMG      0.039700
    130 H411       13.5500   10.5660   -7.8950 hc        1 LMG      0.039700
    131 H412       13.4850   10.9220   -6.1270 hc        1 LMG      0.039700
    132 H421       13.0190   13.3450   -6.6310 hc        1 LMG      0.039700
    133 H422       13.0840   12.9900   -8.4000 hc        1 LMG      0.039700
    134 H431       15.4520   12.1680   -8.1480 hc        1 LMG      0.039700
    135 H432       15.3870   12.5230   -6.3800 hc        1 LMG      0.039700
    136 H441       14.9200   14.9450   -6.8830 hc        1 LMG      0.038700
    137 H442       14.9850   14.5900   -8.6510 hc        1 LMG      0.038700
    138 H451       17.1560   15.5090   -7.8350 hc        1 LMG      0.032700
    139 H452       17.3000   14.1590   -6.6360 hc        1 LMG      0.032700
    140 H453       17.3640   13.8040   -8.4090 hc        1 LMG      0.032700
    141 O5          3.8520    3.4430   -1.6900 oh        1 LMG     -0.600800
@<TRIPOS>BOND
     1    1    2 1   
     2    1    3 1   
     3    1   11 1   
     4    1   55 1   
     5    2   12 1   
     6    3    4 1   
     7    3    5 1   
     8    3   56 1   
     9    4   57 1   
    10    5    6 1   
    11    5    7 1   
    12    5   58 1   
    13    6   59 1   
    14    7    8 1   
    15    7    9 1   
    16    7   60 1   
    17    8   61 1   
    18    9   10 1   
    19    9   11 1   
    20    9   62 1   
    21   10   64 1   
    22   10   65 1   
    23   10  141 1   
    24   12   13 1   
    25   12   66 1   
    26   12   67 1   
    27   13   14 1   
    28   13   15 1   
    29   13   68 1   
    30   14   35 1   
    31   14   69 1   
    32   14   70 1   
    33   15   16 1   
    34   16   17 2   
    35   16   18 1   
    36   18   19 1   
    37   18   71 1   
    38   18   72 1   
    39   19   20 1   
    40   19   73 1   
    41   19   74 1   
    42   20   21 1   
    43   20   75 1   
    44   20   76 1   
    45   21   22 1   
    46   21   77 1   
    47   21   78 1   
    48   22   23 1   
    49   22   79 1   
    50   22   80 1   
    51   23   24 1   
    52   23   81 1   
    53   23   82 1   
    54   24   25 1   
    55   24   83 1   
    56   24   84 1   
    57   25   26 1   
    58   25   85 1   
    59   25   86 1   
    60   26   27 1   
    61   26   87 1   
    62   26   88 1   
    63   27   28 1   
    64   27   89 1   
    65   27   90 1   
    66   28   29 1   
    67   28   91 1   
    68   28   92 1   
    69   29   30 1   
    70   29   93 1   
    71   29   94 1   
    72   30   31 1   
    73   30   95 1   
    74   30   96 1   
    75   31   32 1   
    76   31   97 1   
    77   31   98 1   
    78   32   33 1   
    79   32   99 1   
    80   32  100 1   
    81   33   34 1   
    82   33  101 1   
    83   33  102 1   
    84   34  103 1   
    85   34  104 1   
    86   34  105 1   
    87   35   36 1   
    88   36   37 2   
    89   36   38 1   
    90   38   39 1   
    91   38  106 1   
    92   38  107 1   
    93   39   40 1   
    94   39  108 1   
    95   39  109 1   
    96   40   41 1   
    97   40  110 1   
    98   40  111 1   
    99   41   42 1   
   100   41  112 1   
   101   41  113 1   
   102   42   43 1   
   103   42  114 1   
   104   42  115 1   
   105   43   44 1   
   106   43  116 1   
   107   43  117 1   
   108   44   45 1   
   109   44  118 1   
   110   44  119 1   
   111   45   46 1   
   112   45  120 1   
   113   45  121 1   
   114   46   47 1   
   115   46  122 1   
   116   46  123 1   
   117   47   48 1   
   118   47  124 1   
   119   47  125 1   
   120   48   49 1   
   121   48  126 1   
   122   48  127 1   
   123   49   50 1   
   124   49  128 1   
   125   49  129 1   
   126   50   51 1   
   127   50  130 1   
   128   50  131 1   
   129   51   52 1   
   130   51  132 1   
   131   51  133 1   
   132   52   53 1   
   133   52  134 1   
   134   52  135 1   
   135   53   54 1   
   136   53  136 1   
   137   53  137 1   
   138   54  138 1   
   139   54  139 1   
   140   54  140 1   
   141   63  141 1   
@<TRIPOS>SUBSTRUCTURE
     1 LMG         1 TEMP              0 ****  ****    0 ROOT
