@<TRIPOS>MOLECULE
molecule
   21    20     1     0     0
SMALL
bcc


@<TRIPOS>ATOM
      1 C1           0.0000     0.0000     0.0000 c          1 LML       0.916600
      2 O1           1.2080     0.0000     0.0000 o          1 LML      -0.880550
      3 OXT         -0.6710     0.0000     1.1620 o          1 LML      -0.880550
      4 CA          -0.7530    -0.0020    -1.3060 c3         1 LML      -0.265700
      5 CB           0.2410    -0.0010    -2.4670 c3         1 LML      -0.026400
      6 CG          -0.5230    -0.0020    -3.7930 c3         1 LML      -0.095700
      7 CD1          0.4700    -0.0020    -4.9550 c3         1 LML      -0.080600
      8 CD2         -1.4010    -1.2530    -3.8730 c3         1 LML      -0.080600
      9 C           -1.6210     1.2270    -1.3850 c          1 LML       0.916600
     10 O           -1.4600     2.0230    -2.2800 o          1 LML      -0.880550
     11 O2          -2.5710     1.4400    -0.4620 o          1 LML      -0.880550
     12 HA          -1.3750    -0.8870    -1.3630 hc         1 LML       0.027700
     13 HB1          0.8630     0.8840    -2.4090 hc         1 LML       0.024200
     14 HB2          0.8650    -0.8850    -2.4090 hc         1 LML       0.024200
     15 HG          -1.1470     0.8820    -3.8500 hc         1 LML       0.114700
     16 HD11         1.1230     0.8580    -4.8710 hc         1 LML       0.007867
     17 HD12         1.0610    -0.9090    -4.9250 hc         1 LML       0.007867
     18 HD13        -0.0720     0.0460    -5.8920 hc         1 LML       0.007867
     19 HD21        -0.8940    -2.0810    -3.3940 hc         1 LML       0.007867
     20 HD22        -1.5880    -1.4970    -4.9120 hc         1 LML       0.007867
     21 HD23        -2.3430    -1.0660    -3.3720 hc         1 LML       0.007867
@<TRIPOS>BOND
     1     1     2 1
     2     1     3 1
     3     1     4 1
     4     4     5 1
     5     4     9 1
     6     4    12 1
     7     5     6 1
     8     5    13 1
     9     5    14 1
    10     6     7 1
    11     6     8 1
    12     6    15 1
    13     7    16 1
    14     7    17 1
    15     7    18 1
    16     8    19 1
    17     8    20 1
    18     8    21 1
    19     9    10 1
    20     9    11 1
@<TRIPOS>SUBSTRUCTURE
     1 LML         1 TEMP              0 ****  ****    0 ROOT
