@<TRIPOS>MOLECULE
LML
   21    20     1     0     0
SMALL
bcc


@<TRIPOS>ATOM
      1 C1          0.0410    0.0350    0.0500 c         1 LML      0.928100
      2 O1          1.3090   -0.0650    0.0210 o         1 LML     -0.889300
      3 OXT        -0.6030   -0.1580    1.1290 o         1 LML     -0.889300
      4 CA         -0.7420    0.2640   -1.2530 c3        1 LML     -0.258700
      5 CB          0.1420   -0.0470   -2.4510 c3        1 LML     -0.038400
      6 CG         -0.6590   -0.2200   -3.7380 c3        1 LML     -0.089700
      7 CD1         0.2000    0.0730   -4.9500 c3        1 LML     -0.073100
      8 CD2        -1.2420   -1.6130   -3.8400 c3        1 LML     -0.073100
      9 C          -1.3620    1.6600   -1.4470 c         1 LML      0.928100
     10 O          -0.6550    2.7110   -1.4240 o         1 LML     -0.889300
     11 O2         -2.6050    1.7150   -1.7280 o         1 LML     -0.889300
     12 HA         -1.5990   -0.4660   -1.2280 hc        1 LML      0.022700
     13 HB1         0.8660    0.8020   -2.5670 hc        1 LML      0.034700
     14 HB2         0.7400   -0.9730   -2.2510 hc        1 LML      0.034700
     15 HG         -1.5100    0.5240   -3.7040 hc        1 LML      0.092700
     16 HD11        1.0860   -0.6070   -4.9790 hc        1 LML      0.008200
     17 HD12       -0.3810   -0.0700   -5.8940 hc        1 LML      0.008200
     18 HD13        0.5650    1.1270   -4.9130 hc        1 LML      0.008200
     19 HD21       -1.8800   -1.7110   -4.7520 hc        1 LML      0.008200
     20 HD22       -0.4310   -2.3800   -3.8970 hc        1 LML      0.008200
     21 HD23       -1.8680   -1.8250   -2.9390 hc        1 LML      0.008200
@<TRIPOS>BOND
     1    1    2 1   
     2    1    3 1   
     3    1    4 1   
     4    4    5 1   
     5    4    9 1   
     6    4   12 1   
     7    5    6 1   
     8    5   13 1   
     9    5   14 1   
    10    6    7 1   
    11    6    8 1   
    12    6   15 1   
    13    7   16 1   
    14    7   17 1   
    15    7   18 1   
    16    8   19 1   
    17    8   20 1   
    18    8   21 1   
    19    9   10 1   
    20    9   11 1   
@<TRIPOS>SUBSTRUCTURE
     1 LML         1 TEMP              0 ****  ****    0 ROOT
