@<TRIPOS>MOLECULE
LMM
   44    47     1     0     0
SMALL
bcc


@<TRIPOS>ATOM
      1 F28          0.0000     0.0000     0.0000 f          1 LMM      -0.108900
      2 C25          1.3500     0.0000     0.0000 ca         1 LMM      -0.129700
      3 C26          2.0620     0.0000     1.1920 ca         1 LMM       0.416200
      4 N27          3.3850    -0.0000     1.1510 nb         1 LMM      -0.586000
      5 C22          4.0250    -0.0010    -0.0010 ca         1 LMM       0.568300
      6 N23          3.3850    -0.0000    -1.1520 nb         1 LMM      -0.586000
      7 C24          2.0610    -0.0050    -1.1920 ca         1 LMM       0.416200
      8 C19          5.5320    -0.0020    -0.0010 c3         1 LMM       0.097200
      9 C21          6.0430     1.3910    -0.3750 c3         1 LMM      -0.022100
     10 N18          6.0200    -0.9780    -0.9780 nu         1 LMM      -0.489900
     11 C8           7.2770    -1.5430    -0.8250 ca         1 LMM       0.764900
     12 N7           7.6920    -2.4180    -1.7160 nb         1 LMM      -0.723000
     13 C6           8.9100    -2.9980    -1.6110 ca         1 LMM       0.533100
     14 C2           9.5270    -3.9420    -2.4470 cc         1 LMM      -0.217000
     15 C1           8.8520    -4.4810    -3.6820 c3         1 LMM       0.081100
     16 N9           8.0200    -1.1780     0.2120 nb         1 LMM      -0.769000
     17 C10          9.2290    -1.6950     0.3950 ca         1 LMM       0.612200
     18 C5           9.7140    -2.6380    -0.5270 ca         1 LMM      -0.340700
     19 S4          11.2350    -3.5160    -0.6070 ss         1 LMM      -0.211500
     20 C3          10.7400    -4.3280    -2.0830 cd         1 LMM       0.017600
     21 N11         10.0010    -1.3110     1.4790 nu         1 LMM      -0.328600
     22 C12          9.5070    -0.3680     2.3950 cc         1 LMM       0.367200
     23 N16         10.1490     0.0900     3.4820 nc         1 LMM      -0.638000
     24 C15          9.3900     0.9540     4.1000 cd         1 LMM       0.232400
     25 N14          8.2300     1.0790     3.4220 na         1 LMM       0.289100
     26 C17          7.1050     1.9480     3.7770 c3         1 LMM      -0.008400
     27 C13          8.3030     0.2440     2.3340 cd         1 LMM      -0.466600
     28 H26          1.5420     0.0000     2.1430 h4         1 LMM       0.001600
     29 H24          1.5410    -0.0050    -2.1420 h4         1 LMM       0.001600
     30 H19          5.8930    -0.2660     0.9850 h1         1 LMM       0.067700
     31 H211         5.6240     2.1240     0.3050 hc         1 LMM       0.018033
     32 H212         7.1240     1.4100    -0.3040 hc         1 LMM       0.018033
     33 H213         5.7430     1.6260    -1.3890 hc         1 LMM       0.018033
     34 H18          5.4390    -1.2530    -1.7450 hn         1 LMM       0.316800
     35 H11C         8.5840    -3.6590    -4.3350 hc         1 LMM       0.010700
     36 H12C         7.9580    -5.0230    -3.3970 hc         1 LMM       0.010700
     37 H13C         9.5290    -5.1490    -4.2010 hc         1 LMM       0.010700
     38 H3          11.3450    -5.0470    -2.6220 h4         1 LMM       0.151000
     39 H11         10.9160    -1.6980     1.6030 hn         1 LMM       0.295800
     40 H13          7.5410     0.0980     1.5770 h4         1 LMM       0.217000
     41 H15          9.6500     1.4850     5.0080 h5         1 LMM       0.022100
     42 H171         6.1760     1.4030     3.6570 h1         1 LMM       0.022700
     43 H172         7.2060     2.2670     4.8070 h1         1 LMM       0.022700
     44 H173         7.1000     2.8160     3.1290 h1         1 LMM       0.022700
@<TRIPOS>BOND
     1     1     2 1   
     2     2     3 ar  
     3     2     7 ar  
     4     3     4 ar  
     5     3    28 1   
     6     4     5 ar  
     7     5     6 ar  
     8     5     8 1   
     9     6     7 ar  
    10     7    29 1   
    11     8     9 1   
    12     8    10 1   
    13     8    30 1   
    14     9    31 1   
    15     9    32 1   
    16     9    33 1   
    17    10    11 1   
    18    10    34 1   
    19    11    12 ar  
    20    11    16 ar  
    21    12    13 ar  
    22    13    14 1   
    23    13    18 ar  
    24    14    15 1   
    25    14    20 2   
    26    15    35 1   
    27    15    36 1   
    28    15    37 1   
    29    16    17 ar  
    30    17    18 ar  
    31    17    21 1   
    32    18    19 1   
    33    19    20 1   
    34    20    38 1   
    35    21    22 1   
    36    21    39 1   
    37    22    23 1   
    38    22    27 2   
    39    23    24 2   
    40    24    25 1   
    41    24    41 1   
    42    25    26 1   
    43    25    27 1   
    44    26    42 1   
    45    26    43 1   
    46    26    44 1   
    47    27    40 1   
@<TRIPOS>SUBSTRUCTURE
     1 LMM         1 TEMP              0 ****  ****    0 ROOT
