@<TRIPOS>MOLECULE
LMP
   52    53     1     0     0
SMALL
bcc


@<TRIPOS>ATOM
      1 C1           0.0000     0.0000     0.0000 c3         1 LMP      -0.038700
      2 C2           1.5480     0.0000     0.0000 c3         1 LMP       0.010100
      3 C3           1.9090     0.0000     1.4690 ce         1 LMP       0.285300
      4 C6A          6.7930    -2.3750    -2.8800 c          1 LMP       0.593100
      5 N7A          7.5990    -3.3970    -2.5300 n          1 LMP      -0.173800
      6 C9A          8.2430    -4.2090    -3.5650 c3         1 LMP       0.087800
      7 C8A          7.8330    -3.6950    -1.1150 c3         1 LMP       0.087800
      8 C5A          6.1390    -1.5310    -1.8170 c3         1 LMP       0.046500
      9 C2A          4.8610    -2.2270    -1.2860 c3         1 LMP      -0.033400
     10 N3A          5.6650    -0.2550    -2.3930 n7         1 LMP      -0.598200
     11 C4A          4.3860     0.1050    -1.7510 c3         1 LMP       0.141800
     12 C1A          4.0470    -1.0220    -0.7470 c3         1 LMP       0.026400
     13 S21          2.1850    -1.4920    -0.8120 ss         1 LMP      -0.483200
     14 C31          3.2500     0.3360     2.0020 c          1 LMP       0.921300
     15 O31          4.1470     0.6370     1.2420 o          1 LMP      -0.885300
     16 O32          3.4750     0.3080     3.3300 o          1 LMP      -0.885300
     17 N4           0.9100    -0.3250     2.1890 n2         1 LMP      -0.421900
     18 C11         -0.5510     1.4230    -0.1090 c3         1 LMP      -0.070100
     19 C5          -0.2900    -0.6060     1.3930 c3         1 LMP       0.124500
     20 C6          -1.5130     0.0650     2.0200 c3         1 LMP      -0.140700
     21 C61         -1.1450     1.4820     2.4670 c3         1 LMP       0.133100
     22 O62          0.0320     1.4350     3.2760 oh         1 LMP      -0.548800
     23 C62         -2.2980     2.0780     3.2770 c3         1 LMP      -0.032100
     24 C7          -2.6260     0.1320     1.0060 c          1 LMP       0.990600
     25 O71         -2.5520    -0.5120    -0.0140 o          1 LMP      -0.909800
     26 O72         -3.6990     0.9050     1.2360 o          1 LMP      -0.909800
     27 H1          -0.3860    -0.6370    -0.7870 hc         1 LMP       0.068700
     28 H2           1.9260     0.8940    -0.4820 h1         1 LMP       0.056700
     29 H3           7.4920    -4.5830    -4.2500 h1         1 LMP       0.006533
     30 H4           8.7570    -5.0430    -3.1030 h1         1 LMP       0.006533
     31 H5           8.9570    -3.6020    -4.1090 h1         1 LMP       0.006533
     32 H6           8.6140    -4.4410    -1.0270 h1         1 LMP       0.006533
     33 H7           6.9200    -4.0740    -0.6700 h1         1 LMP       0.006533
     34 H8           8.1370    -2.7910    -0.6010 h1         1 LMP       0.006533
     35 H9           6.8270    -1.3410    -1.0020 h1         1 LMP       0.053700
     36 H12          5.5240    -0.3650    -3.3770 hn         1 LMP       0.268800
     37 H14          4.4910     1.0460    -1.2250 h1         1 LMP       0.034700
     38 H15          3.6070     0.1770    -2.4990 h1         1 LMP       0.034700
     39 H16          4.3390    -0.7270     0.2540 h1         1 LMP       0.175700
     40 H18         -0.5010     1.7520    -1.1390 hc         1 LMP       0.030700
     41 H19         -1.5820     1.4380     0.2250 hc         1 LMP       0.030700
     42 H20          0.0390     2.0870     0.5120 hc         1 LMP       0.030700
     43 H21         -0.4420    -1.6760     1.3110 h1         1 LMP       0.035700
     44 H22         -1.8410    -0.5100     2.8780 hc         1 LMP       0.029700
     45 H23         -0.9590     2.0990     1.5950 h1         1 LMP       0.049700
     46 H24          0.0620     2.1960     3.8320 ho         1 LMP       0.352000
     47 H25         -2.8870     2.7280     2.6420 hc         1 LMP       0.001700
     48 H26         -2.9230     1.2780     3.6560 hc         1 LMP       0.001700
     49 H27         -1.8990     2.6480     4.1070 hc         1 LMP       0.001700
     50 H10          5.1010    -2.9180    -0.4880 hc         1 LMP       0.023700
     51 O7A          6.6000    -2.1280    -4.0520 o          1 LMP      -0.661100
     52 H11          4.3290    -2.7220    -2.0910 hc         1 LMP       0.023700
@<TRIPOS>BOND
     1     1     2 1   
     2     1    18 1   
     3     1    19 1   
     4     1    27 1   
     5     2     3 1   
     6     2    13 1   
     7     2    28 1   
     8     3    14 1   
     9     3    17 2   
    10     4     5 1   
    11     4     8 1   
    12     4    51 2   
    13     5     6 1   
    14     5     7 1   
    15     6    29 1   
    16     6    30 1   
    17     6    31 1   
    18     7    32 1   
    19     7    33 1   
    20     7    34 1   
    21     8     9 1   
    22     8    10 1   
    23     8    35 1   
    24     9    12 1   
    25     9    50 1   
    26     9    52 1   
    27    10    11 1   
    28    10    36 1   
    29    11    12 1   
    30    11    37 1   
    31    11    38 1   
    32    12    13 1   
    33    12    39 1   
    34    14    15 1   
    35    14    16 1   
    36    17    19 1   
    37    18    40 1   
    38    18    41 1   
    39    18    42 1   
    40    19    20 1   
    41    19    43 1   
    42    20    21 1   
    43    20    24 1   
    44    20    44 1   
    45    21    22 1   
    46    21    23 1   
    47    21    45 1   
    48    22    46 1   
    49    23    47 1   
    50    23    48 1   
    51    23    49 1   
    52    24    25 1   
    53    24    26 1   
@<TRIPOS>SUBSTRUCTURE
     1 LMP         1 TEMP              0 ****  ****    0 ROOT
