@<TRIPOS>MOLECULE
LMR
   13    12     1     0     0
SMALL
bcc


@<TRIPOS>ATOM
      1 C1          0.0600    0.2430   -0.0900 c         1 LMR      0.881600
      2 O1A        -0.6500   -0.1070    0.9070 o         1 LMR     -0.876300
      3 O1B        -0.4470    0.7100   -1.1510 o         1 LMR     -0.876300
      4 C2          1.5940    0.1000    0.0440 c3        1 LMR      0.044100
      5 O2          1.9470    0.1080    1.4260 oh        1 LMR     -0.640800
      6 C3          2.0830   -1.1680   -0.6390 c3        1 LMR     -0.184400
      7 C4          3.5770   -1.2080   -0.9670 c         1 LMR      0.909600
      8 O4A         4.1880   -2.3170   -0.8220 o         1 LMR     -0.886800
      9 O4B         4.1680   -0.1840   -1.4240 o         1 LMR     -0.886800
     10 H2          2.1180    0.9910   -0.3960 h1        1 LMR      0.070700
     11 HO2         1.2370   -0.3630    1.8850 ho        1 LMR      0.396000
     12 H3          1.5300   -1.2710   -1.6080 hc        1 LMR      0.025700
     13 H3A         1.8330   -2.0510    0.0020 hc        1 LMR      0.025700
@<TRIPOS>BOND
     1    1    2 1   
     2    1    3 1   
     3    1    4 1   
     4    4    5 1   
     5    4    6 1   
     6    4   10 1   
     7    5   11 1   
     8    6    7 1   
     9    6   12 1   
    10    6   13 1   
    11    7    8 1   
    12    7    9 1   
@<TRIPOS>SUBSTRUCTURE
     1 LMR         1 TEMP              0 ****  ****    0 ROOT
