@<TRIPOS>MOLECULE
molecule
   13    12     1     0     0
SMALL
bcc


@<TRIPOS>ATOM
      1 C1           0.0000     0.0000     0.0000 c          1 LMR       0.867600
      2 O1A         -0.6040    -0.0910     1.0420 o          1 LMR      -0.881800
      3 O1B         -0.6710     0.1060    -1.1580 o          1 LMR      -0.881800
      4 C2           1.5070     0.0000     0.0000 c3         1 LMR       0.064100
      5 O2           1.9830     0.0000     1.3460 oh         1 LMR      -0.596800
      6 C3           2.0170    -1.2500    -0.7210 c3         1 LMR      -0.156400
      7 C4           3.5190    -1.1900    -0.8290 c          1 LMR       0.896600
      8 O4A          4.1880    -2.1860    -1.4290 o          1 LMR      -0.888800
      9 O4B          4.1200    -0.2440    -0.3760 o          1 LMR      -0.888800
     10 H2           1.8680     0.8840    -0.5110 h1         1 LMR       0.021700
     11 HO2          1.9860     0.8820     1.6790 ho         1 LMR       0.361000
     12 H3           1.7300    -2.1320    -0.1610 hc         1 LMR       0.042200
     13 H3A          1.5850    -1.2960    -1.7130 hc         1 LMR       0.042200
@<TRIPOS>BOND
     1     1     2 1
     2     1     3 1
     3     1     4 1
     4     4     5 1
     5     4     6 1
     6     6     7 1
     7     7     8 1
     8     7     9 1
     9     4    10 1
    10     5    11 1
    11     6    12 1
    12     6    13 1
@<TRIPOS>SUBSTRUCTURE
     1 LMR         1 TEMP              0 ****  ****    0 ROOT
