@<TRIPOS>MOLECULE
LMZ
   34    34     1     0     0
SMALL
bcc


@<TRIPOS>ATOM
      1 N1          0.0890    0.3260    0.0290 n         1 LMZ     -0.494100
      2 C2          1.5000    0.4670    0.0220 c         1 LMZ      0.820500
      3 N3          2.1900    0.2780    1.2110 n         1 LMZ     -0.586500
      4 C4          1.5440   -0.0490    2.4250 c         1 LMZ      0.732700
      5 C5          0.0830   -0.1820    2.4030 cc        1 LMZ     -0.335600
      6 C6         -0.6290    0.0370    1.1890 cd        1 LMZ      0.426600
      7 N7         -2.0060    0.0170    1.1430 nh        1 LMZ     -0.743000
      8 C8         -2.7550    0.0590   -0.0880 c3        1 LMZ      0.197800
      9 C9         -4.2790    0.0110    0.1490 c3        1 LMZ      0.157100
     10 O9         -4.5480   -1.1890    0.8510 oh        1 LMZ     -0.608800
     11 C10        -5.0210   -0.0060   -1.2050 c3        1 LMZ      0.107100
     12 O10        -4.2930    0.8210   -2.0990 oh        1 LMZ     -0.597800
     13 C11        -6.4550    0.5350   -1.0510 c3        1 LMZ      0.108100
     14 O11        -6.9820    0.0040    0.1530 oh        1 LMZ     -0.618800
     15 C12        -7.3220    0.1140   -2.2440 c3        1 LMZ      0.090400
     16 O12        -8.6110    0.6470   -1.9910 oh        1 LMZ     -0.607800
     17 N5         -0.6540   -0.5290    3.5760 ne        1 LMZ      0.025700
     18 O52        -0.1200   -0.6960    4.5920 o         1 LMZ     -0.151300
     19 O4          2.2630   -0.2010    3.4240 o         1 LMZ     -0.589500
     20 O2          2.0590    0.7510   -1.0580 o         1 LMZ     -0.636500
     21 HN1        -0.3670    0.4910   -0.8430 hn        1 LMZ      0.354500
     22 HN3         3.1830    0.3750    1.1910 hn        1 LMZ      0.356500
     23 HN7        -2.4880   -0.3610    1.9360 hn        1 LMZ      0.482800
     24 H81        -2.5350    1.0240   -0.6320 h1        1 LMZ      0.067200
     25 H82        -2.4760   -0.8070   -0.7550 h1        1 LMZ      0.067200
     26 H9         -4.6160    0.9010    0.7490 h1        1 LMZ      0.066700
     27 HO9        -5.4810   -1.1740    1.1070 ho        1 LMZ      0.439000
     28 H10        -5.0500   -1.0640   -1.5910 h1        1 LMZ      0.062700
     29 HO10       -4.7470    0.7900   -2.9490 ho        1 LMZ      0.411000
     30 H11        -6.4310    1.6600   -0.9840 h1        1 LMZ      0.069700
     31 HO11       -7.9150    0.2560    0.1860 ho        1 LMZ      0.439000
     32 H121       -6.9080    0.5360   -3.1960 h1        1 LMZ      0.036700
     33 H122       -7.3710   -1.0050   -2.3160 h1        1 LMZ      0.036700
     34 HO12       -9.1920    0.3230   -2.6890 ho        1 LMZ      0.417000
@<TRIPOS>BOND
     1    1    2 1
     2    1    6 1
     3    1   21 1
     4    2    3 1
     5    2   20 2
     6    3    4 1
     7    3   22 1
     8    4    5 1
     9    4   19 2
    10    5    6 2
    11    5   17 1
    12    6    7 1
    13    7    8 1
    14    7   23 1
    15    8    9 1
    16    8   24 1
    17    8   25 1
    18    9   10 1
    19    9   11 1
    20    9   26 1
    21   10   27 1
    22   11   12 1
    23   11   13 1
    24   11   28 1
    25   12   29 1
    26   13   14 1
    27   13   15 1
    28   13   30 1
    29   14   31 1
    30   15   16 1
    31   15   32 1
    32   15   33 1
    33   16   34 1
    34   17   18 2
@<TRIPOS>SUBSTRUCTURE
     1 LMZ         1 TEMP              0 ****  ****    0 ROOT
