@<TRIPOS>MOLECULE
LN0
   60    57     1     0     0
SMALL
bcc


@<TRIPOS>ATOM
      1 C4         -0.9130    3.5260    0.5730 c3        1 LN0     -0.088000
      2 C14         0.1650    0.8360   -5.7200 c3        1 LN0     -0.125000
      3 C5          1.1970   -1.6930    0.0720 c2        1 LN0     -0.144000
      4 C6          0.2510   -4.0820    0.8150 c3        1 LN0     -0.526000
      5 C11         0.3480    2.0710   -3.6750 c3        1 LN0     -0.147000
      6 C7         -1.6790    3.3550   -0.6790 c2        1 LN0     -0.598000
      7 C8         -3.1020    3.1960   -0.7560 c2        1 LN0      0.295000
      8 C9         -3.8880    3.2380    0.5160 c3        1 LN0     -0.243000
      9 C12        -0.3280    2.9750   -4.6650 c1        1 LN0      0.072000
     10 C13        -0.4090    2.2590   -5.9570 c3        1 LN0     -0.176000
     11 N1         -0.9640    3.3560   -1.9170 n4        1 LN0      0.087000
     12 N2          0.6110    0.7680   -4.3190 n3        1 LN0     -0.123000
     13 C3         -0.1230    2.2820    0.9600 c3        1 LN0     -0.035000
     14 C18        -0.2970    4.2280   -7.6510 cx        1 LN0     -0.189000
     15 C16         0.3170    2.9900   -7.0470 cx        1 LN0     -0.175000
     16 C15         1.1840   -0.2150   -3.7010 c1        1 LN0     -0.222000
     17 O8         -3.6810    3.0350   -1.8600 o         1 LN0     -0.440000
     18 O5         -0.0530   -1.2590    0.1280 oh        1 LN0     -0.163000
     19 O7         -0.9210    1.1110    1.0350 oh        1 LN0     -0.367000
     20 C2          3.3800   -1.5900   -0.9150 c1        1 LN0     -0.033000
     21 O6          4.1210   -0.9890   -1.8050 oh        1 LN0     -0.169000
     22 C1          2.2920   -0.7160   -0.3300 c3        1 LN0     -0.047000
     23 O4          1.7600    0.3300   -1.0790 oh        1 LN0     -0.379000
     24 S1          1.6630   -3.1990    0.3600 ss        1 LN0      0.786000
     25 H1         -0.1900    4.3850    0.5020 hc        1 LN0      0.095000
     26 H3          1.0370    0.6320   -6.3970 h1        1 LN0      0.127500
     27 H4         -0.1110   -0.2800   -0.0760 ho        1 LN0      0.332000
     28 H5         -0.2920   -3.6420    1.6860 h1        1 LN0      0.158667
     29 H6          0.6010   -5.1070    1.1060 h1        1 LN0      0.158667
     30 H7         -0.4910   -4.1920   -0.0130 h1        1 LN0      0.158667
     31 H8          1.3530    2.5340   -3.3980 h1        1 LN0      0.190000
     32 H9         -1.6310    3.7740    1.4000 hc        1 LN0      0.095000
     33 H10        -3.8130    4.2530    0.9760 hc        1 LN0      0.100000
     34 H11        -4.9630    3.0190    0.3050 hc        1 LN0      0.100000
     35 H12        -3.4980    2.4820    1.2400 hc        1 LN0      0.100000
     36 H13        -2.4780    2.2090   -4.1380 ha        1 LN0      0.002500
     37 H14        -3.1120    2.4000   -3.9770 ha        1 LN0      0.002500
     38 H15        -1.5070    2.1870   -6.2270 hc        1 LN0      0.180000
     39 H16        -0.1510    3.9740   -1.8580 hn        1 LN0      0.255500
     40 H18         0.6930    2.0850    0.2080 h1        1 LN0      0.073000
     41 H19        -1.1730    2.4100   -8.6510 hc        1 LN0      0.126750
     42 H20         2.3590    4.1260   -8.6960 ha        1 LN0      0.002500
     43 H21         2.9310    4.3420   -8.9870 ha        1 LN0      0.002500
     44 H22         0.3730    5.0670   -7.9170 hc        1 LN0      0.126750
     45 H23        -1.2720    4.5830   -7.2700 hc        1 LN0      0.126750
     46 H24         1.4190    2.9600   -6.9250 hc        1 LN0      0.127000
     47 H25         0.4740    2.8910   -9.2920 hc        1 LN0      0.126750
     48 H26         1.3630   -1.1450   -4.2720 ha        1 LN0      0.093000
     49 H27         3.3480    0.9730   -3.1160 ha        1 LN0      0.002500
     50 H28         3.6450    1.2610   -2.5790 ha        1 LN0      0.002500
     51 H29        -1.6950    1.2460    0.4660 ho        1 LN0      0.232000
     52 H30         0.3310    2.4000    1.9790 h1        1 LN0      0.073000
     53 H31         4.8140   -1.6130   -2.1070 ho        1 LN0      0.283000
     54 H32         2.7040   -0.2360    0.6160 h1        1 LN0      0.182000
     55 H33         1.6010    0.0280   -2.0350 ho        1 LN0      0.294000
     56 C10        -0.4700    2.0100   -2.3840 c2        1 LN0      0.237000
     57 C17        -0.2380    2.9640   -8.4500 cx        1 LN0     -0.189000
     58 O9         -0.7140    0.9840   -1.7640 o         1 LN0     -0.210000
     59 H121       -1.6040    3.6870   -2.6660 hn        1 LN0      0.255500
     60 H2         -0.6240    0.0560   -5.8960 h1        1 LN0      0.127500
@<TRIPOS>BOND
     1    1    6 1   
     2    1   13 1   
     3    1   25 1   
     4    1   32 1   
     5    2   10 1   
     6    2   12 1   
     7    2   26 1   
     8    2   60 1   
     9    3   18 1   
    10    3   22 1   
    11    3   24 1   
    12    4   24 1   
    13    4   28 1   
    14    4   29 1   
    15    4   30 1   
    16    5    9 1   
    17    5   12 1   
    18    5   31 1   
    19    5   56 1   
    20    6    7 1   
    21    6   11 1   
    22    7    8 1   
    23    7   17 1   
    24    8   33 1   
    25    8   34 1   
    26    8   35 1   
    27    9   10 1   
    28   10   15 1   
    29   10   38 1   
    30   11   39 1   
    31   11   56 1   
    32   11   59 1   
    33   12   16 1   
    34   13   19 1   
    35   13   40 1   
    36   13   52 1   
    37   14   15 1   
    38   14   44 1   
    39   14   45 1   
    40   14   57 1   
    41   15   46 1   
    42   15   57 1   
    43   16   48 1   
    44   18   27 1   
    45   19   51 1   
    46   20   21 1   
    47   20   22 1   
    48   21   53 1   
    49   22   23 1   
    50   22   54 1   
    51   23   55 1   
    52   36   37 1   
    53   41   57 1   
    54   42   43 1   
    55   47   57 1   
    56   49   50 1   
    57   56   58 1   
@<TRIPOS>SUBSTRUCTURE
     1 LN0         1 TEMP              0 ****  ****    0 ROOT
