@<TRIPOS>MOLECULE
LN1
   55    57     1     0     0
SMALL
bcc


@<TRIPOS>ATOM
      1 O8           0.0000     0.0000     0.0000 o          1 LN1      -0.638100
      2 C7           1.2140     0.0000     0.0000 c          1 LN1       0.727100
      3 C6           1.9220     0.0000     1.2260 cc         1 LN1      -0.325200
      4 C9           1.3550    -0.0010     2.5280 cc         1 LN1      -0.093000
      5 CG           2.3890    -0.0020     3.4210 cd         1 LN1      -0.311300
      6 CD1          2.4110    -0.0030     4.8370 cd         1 LN1      -0.037000
      7 CE1          3.6040    -0.0040     5.4830 cc         1 LN1      -0.161000
      8 CZ           4.8050    -0.0050     4.7420 cc         1 LN1      -0.104000
      9 CE2          4.7810    -0.0040     3.3980 cd         1 LN1      -0.306300
     10 ND2          3.5830    -0.0020     2.7160 na         1 LN1       0.618700
     11 C5           3.3090    -0.0060     1.3850 cd         1 LN1      -0.118100
     12 N4           4.2410    -0.0120     0.3650 nu         1 LN1      -0.335000
     13 C3           5.5980     0.1880     0.8910 c3         1 LN1      -0.042500
     14 C3A          6.1550    -1.1320     1.3590 c          1 LN1       0.942600
     15 O3A          7.3900    -1.1910     1.8820 o          1 LN1      -0.857800
     16 O3B          5.4900    -2.1360     1.2650 o          1 LN1      -0.857800
     17 C2           6.4930     0.7570    -0.2120 c3         1 LN1       0.102300
     18 S1           5.9080     2.4110    -0.6720 s4         1 LN1       0.311700
     19 O12          6.0190     3.1890     0.6310 oh         1 LN1      -0.548800
     20 O13          4.5070     2.3700    -0.9030 o          1 LN1      -0.496200
     21 CG2          6.4430    -0.1620    -1.4350 c3         1 LN1       0.018900
     22 CG1          7.9330     0.8490     0.2980 c3         1 LN1       0.194400
     23 OAV          8.7830     1.3890    -0.7490 os         1 LN1      -0.433900
     24 CAX         10.0850     1.5360    -0.4610 c          1 LN1       0.680100
     25 OAD         10.5020     1.2220     0.6290 o          1 LN1      -0.561000
     26 CAS         11.0290     2.0900    -1.4980 c3         1 LN1      -0.013100
     27 CAY         12.4220     2.1510    -0.9270 ca         1 LN1      -0.068300
     28 CAQ         12.8450     3.2860    -0.2610 ca         1 LN1      -0.109000
     29 CAM         13.2730     1.0700    -1.0660 ca         1 LN1      -0.072000
     30 CAN         14.5520     1.1210    -0.5430 ca         1 LN1      -0.137000
     31 CAZ         14.9840     2.2580     0.1200 ca         1 LN1       0.094100
     32 OAH         16.2430     2.3100     0.6330 oh         1 LN1      -0.498100
     33 CBA         14.1270     3.3440     0.2640 ca         1 LN1       0.096100
     34 OAI         14.5450     4.4600     0.9200 oh         1 LN1      -0.490100
     35 H7           1.7550     0.0010    -0.9380 h4         1 LN1      -0.050800
     36 H9           0.3070     0.1370     2.7670 ha         1 LN1       0.124000
     37 HD1          1.4850    -0.0030     5.3990 ha         1 LN1       0.096000
     38 HE1          3.6340    -0.0050     6.5660 ha         1 LN1       0.095000
     39 HZ           5.7550    -0.0060     5.2610 ha         1 LN1       0.112000
     40 HE2          5.7130    -0.0040     2.8460 h4         1 LN1       0.223000
     41 HN4          4.0960    -0.5870    -0.4420 hn         1 LN1       0.300800
     42 H3           5.5650     0.8810     1.7220 h1         1 LN1       0.077700
     43 HO12         5.9840     4.1130     0.4490 ho         1 LN1       0.447000
     44 HG2          6.7400    -1.1630    -1.1470 hc         1 LN1       0.018367
     45 HG2A         5.4340    -0.1830    -1.8290 hc         1 LN1       0.018367
     46 HG2B         7.1190     0.2110    -2.1940 hc         1 LN1       0.018367
     47 HG1          8.2830    -0.1380     0.5730 h1         1 LN1       0.074700
     48 HG1A         7.9690     1.5000     1.1630 h1         1 LN1       0.074700
     49 HAS         10.7100     3.0860    -1.7800 hc         1 LN1       0.032200
     50 HASA        11.0240     1.4480    -2.3700 hc         1 LN1       0.032200
     51 HAQ         12.1760     4.1300    -0.1490 ha         1 LN1       0.114000
     52 HAM         12.9360     0.1810    -1.5840 ha         1 LN1       0.109000
     53 HAN         15.2160     0.2730    -0.6540 ha         1 LN1       0.110000
     54 HOAH        16.3090     1.7190     1.3650 ho         1 LN1       0.405000
     55 HOAI        14.8050     5.1150     0.2920 ho         1 LN1       0.396000
@<TRIPOS>BOND
     1     1     2 2   
     2     2     3 1   
     3     2    35 1   
     4     3     4 1   
     5     3    11 2   
     6     4     5 2   
     7     4    36 1   
     8     5     6 1   
     9     5    10 1   
    10     6     7 2   
    11     6    37 1   
    12     7     8 1   
    13     7    38 1   
    14     8     9 2   
    15     8    39 1   
    16     9    10 1   
    17     9    40 1   
    18    10    11 1   
    19    11    12 1   
    20    12    13 1   
    21    12    41 1   
    22    13    14 1   
    23    13    17 1   
    24    13    42 1   
    25    14    15 1   
    26    14    16 1   
    27    17    18 1   
    28    17    21 1   
    29    17    22 1   
    30    18    19 1   
    31    18    20 2   
    32    19    43 1   
    33    21    44 1   
    34    21    45 1   
    35    21    46 1   
    36    22    23 1   
    37    22    47 1   
    38    22    48 1   
    39    23    24 1   
    40    24    25 2   
    41    24    26 1   
    42    26    27 1   
    43    26    49 1   
    44    26    50 1   
    45    27    28 ar  
    46    27    29 ar  
    47    28    33 ar  
    48    28    51 1   
    49    29    30 ar  
    50    29    52 1   
    51    30    31 ar  
    52    30    53 1   
    53    31    32 1   
    54    31    33 ar  
    55    32    54 1   
    56    33    34 1   
    57    34    55 1   
@<TRIPOS>SUBSTRUCTURE
     1 LN1         1 TEMP              0 ****  ****    0 ROOT
