@<TRIPOS>MOLECULE
molecule
   55    57     1     0     0
SMALL
bcc


@<TRIPOS>ATOM
      1 O8           0.0000     0.0000     0.0000 o          1 LN1      -0.599100
      2 C7           1.2140     0.0000     0.0000 c          1 LN1       0.629100
      3 C6           1.9220     0.0000     1.2260 cc         1 LN1      -0.311200
      4 C9           1.3550    -0.0010     2.5280 cc         1 LN1      -0.132000
      5 CG           2.3890    -0.0020     3.4210 cd         1 LN1      -0.103300
      6 CD1          2.4110    -0.0030     4.8370 cd         1 LN1      -0.104000
      7 CE1          3.6040    -0.0040     5.4830 cc         1 LN1      -0.150000
      8 CZ           4.8050    -0.0050     4.7420 cc         1 LN1      -0.184000
      9 CE2          4.7810    -0.0040     3.3980 cd         1 LN1      -0.067300
     10 ND2          3.5830    -0.0020     2.7160 na         1 LN1       0.034700
     11 C5           3.3090    -0.0060     1.3850 cd         1 LN1       0.217900
     12 N4           4.2410    -0.0120     0.3650 nu         1 LN1      -0.722000
     13 C3           5.5980     0.1880     0.8910 c3         1 LN1       0.081500
     14 C3A          6.1550    -1.1320     1.3590 c          1 LN1       0.852600
     15 O3A          7.3900    -1.1910     1.8820 o          1 LN1      -0.817800
     16 O3B          5.4900    -2.1360     1.2650 o          1 LN1      -0.817800
     17 C2           6.4930     0.7570    -0.2120 c3         1 LN1      -0.038700
     18 S1           5.9080     2.4110    -0.6720 s4         1 LN1       0.597700
     19 O12          6.0190     3.1890     0.6310 oh         1 LN1      -0.632800
     20 O13          4.5070     2.3700    -0.9030 o          1 LN1      -0.542200
     21 CG2          6.4430    -0.1620    -1.4350 c3         1 LN1      -0.064100
     22 CG1          7.9330     0.8490     0.2980 c3         1 LN1       0.151400
     23 OAV          8.7830     1.3890    -0.7490 os         1 LN1      -0.463900
     24 CAX         10.0850     1.5360    -0.4610 c          1 LN1       0.624100
     25 OAD         10.5020     1.2220     0.6290 o          1 LN1      -0.520000
     26 CAS         11.0290     2.0900    -1.4980 c3         1 LN1      -0.083100
     27 CAY         12.4220     2.1510    -0.9270 ca         1 LN1      -0.064300
     28 CAQ         12.8450     3.2860    -0.2610 ca         1 LN1      -0.127000
     29 CAM         13.2730     1.0700    -1.0660 ca         1 LN1      -0.097000
     30 CAN         14.5520     1.1210    -0.5430 ca         1 LN1      -0.157000
     31 CAZ         14.9840     2.2580     0.1200 ca         1 LN1       0.089100
     32 OAH         16.2430     2.3100     0.6330 oh         1 LN1      -0.519100
     33 CBA         14.1270     3.3440     0.2640 ca         1 LN1       0.088100
     34 OAI         14.5450     4.4600     0.9200 oh         1 LN1      -0.511100
     35 H7           1.7550     0.0010    -0.9380 h4         1 LN1      -0.016800
     36 H9           0.3070     0.1370     2.7670 ha         1 LN1       0.150000
     37 HD1          1.4850    -0.0030     5.3990 ha         1 LN1       0.126000
     38 HE1          3.6340    -0.0050     6.5660 ha         1 LN1       0.114000
     39 HZ           5.7550    -0.0060     5.2610 ha         1 LN1       0.142000
     40 HE2          5.7130    -0.0040     2.8460 h4         1 LN1       0.224000
     41 HN4          4.0960    -0.5870    -0.4420 hn         1 LN1       0.447800
     42 H3           5.5650     0.8810     1.7220 h1         1 LN1       0.086700
     43 HO12         5.9840     4.1130     0.4490 ho         1 LN1       0.452000
     44 HG2          6.7400    -1.1630    -1.1470 hc         1 LN1       0.044700
     45 HG2A         5.4340    -0.1830    -1.8290 hc         1 LN1       0.044700
     46 HG2B         7.1190     0.2110    -2.1940 hc         1 LN1       0.044700
     47 HG1          8.2830    -0.1380     0.5730 h1         1 LN1       0.104700
     48 HG1A         7.9690     1.5000     1.1630 h1         1 LN1       0.104700
     49 HAS         10.7100     3.0860    -1.7800 hc         1 LN1       0.069700
     50 HASA        11.0240     1.4480    -2.3700 hc         1 LN1       0.069700
     51 HAQ         12.1760     4.1300    -0.1490 ha         1 LN1       0.142000
     52 HAM         12.9360     0.1810    -1.5840 ha         1 LN1       0.139000
     53 HAN         15.2160     0.2730    -0.6540 ha         1 LN1       0.138000
     54 HOAH        16.3090     1.7190     1.3650 ho         1 LN1       0.423000
     55 HOAI        14.8050     5.1150     0.2920 ho         1 LN1       0.414000
@<TRIPOS>BOND
     1     1     2 2
     2     2    35 1
     3     3     2 1
     4     3     4 1
     5     4    36 1
     6     5     4 2
     7     5     6 1
     8     6    37 1
     9     7     6 2
    10     7    38 1
    11     8     7 1
    12     8    39 1
    13     9     8 2
    14     9    10 1
    15     9    40 1
    16    10     5 1
    17    11     3 2
    18    11    10 1
    19    12    11 1
    20    12    41 1
    21    13    12 1
    22    13    14 1
    23    13    42 1
    24    14    15 1
    25    16    14 1
    26    17    13 1
    27    17    21 1
    28    18    17 1
    29    19    18 1
    30    19    43 1
    31    20    18 2
    32    21    44 1
    33    21    45 1
    34    21    46 1
    35    22    17 1
    36    22    23 1
    37    22    47 1
    38    22    48 1
    39    24    23 1
    40    25    24 2
    41    26    24 1
    42    26    49 1
    43    26    50 1
    44    27    26 1
    45    27    29 ar
    46    28    27 ar
    47    28    51 1
    48    29    52 1
    49    30    29 ar
    50    30    53 1
    51    31    30 ar
    52    32    31 1
    53    32    54 1
    54    33    28 ar
    55    33    31 ar
    56    34    33 1
    57    34    55 1
@<TRIPOS>SUBSTRUCTURE
     1 LN1         1 TEMP              0 ****  ****    0 ROOT
