@<TRIPOS>MOLECULE
molecule
   30    29     1     0     0
SMALL
bcc


@<TRIPOS>ATOM
      1 CT1          0.0000     0.0000     0.0000 c3         1 LN5      -0.072100
      2 CH1          1.5300     0.0000     0.0000 c3         1 LN5      -0.109700
      3 CZ           2.0320     0.0000     1.4210 c2         1 LN5       0.638200
      4 NH2          1.1920    -0.0010     2.4030 n2         1 LN5      -0.884100
      5 NE           3.3800     0.0010     1.6710 nu         1 LN5      -0.940200
      6 CD           3.8680    -0.0000     3.0530 c3         1 LN5       0.233800
      7 CG           5.3970     0.0010     3.0520 c3         1 LN5      -0.115400
      8 CB           5.9080     0.0010     4.4950 c3         1 LN5      -0.087400
      9 CA           7.4390     0.0020     4.4940 c3         1 LN5      -0.017500
     10 C            7.9400     0.1250     5.9100 c          1 LN5       0.867600
     11 OA2          7.9740     1.3270     6.5080 o          1 LN5      -0.772800
     12 OA1          8.3140    -0.8580     6.5070 o          1 LN5      -0.772800
     13 N            7.9280    -1.2530     3.9080 nz         1 LN5      -0.791600
     14 H1H2         1.5260    -0.0010     3.3470 hn         1 LN5       0.392400
     15 H1T1        -0.3610     0.0000    -1.0210 hc         1 LN5       0.044367
     16 H2T1        -0.3610    -0.8850     0.5100 hc         1 LN5       0.044367
     17 H3T1        -0.3610     0.8840     0.5110 hc         1 LN5       0.044367
     18 H1H1         1.8910    -0.8850    -0.5110 hc         1 LN5       0.051200
     19 H2H1         1.8910     0.8850    -0.5110 hc         1 LN5       0.051200
     20 HNE          4.0300     0.0040     0.9110 hn         1 LN5       0.423800
     21 H1D          3.5060     0.8840     3.5640 h1         1 LN5       0.050200
     22 H2D          3.5080    -0.8850     3.5630 h1         1 LN5       0.050200
     23 H1G          5.7580     0.8870     2.5420 hc         1 LN5       0.036200
     24 H2G          5.7590    -0.8820     2.5410 hc         1 LN5       0.036200
     25 H1B          5.5470     0.8850     5.0060 hc         1 LN5       0.089700
     26 H2B          5.5480    -0.8840     5.0050 hc         1 LN5       0.089700
     27 HA           7.8000     0.8390     3.9090 hx         1 LN5       0.104700
     28 H1N          7.3380    -2.0090     4.1960 hn         1 LN5       0.439133
     29 H2N          7.9170    -1.1820     2.9100 hn         1 LN5       0.439133
     30 HN3          8.8640    -1.4240     4.2200 hn         1 LN5       0.439133
@<TRIPOS>BOND
     1     2     1 1
     2     3     2 1
     3     3     4 2
     4     4    14 1
     5     5     3 1
     6     6     5 1
     7     7     6 1
     8     8     7 1
     9     9    10 1
    10     9     8 1
    11    10    12 1
    12    11    10 1
    13    13     9 1
    14     1    15 1
    15     1    16 1
    16     1    17 1
    17     2    18 1
    18     2    19 1
    19     5    20 1
    20     6    21 1
    21     6    22 1
    22     7    23 1
    23     7    24 1
    24     8    25 1
    25     8    26 1
    26     9    27 1
    27    13    28 1
    28    13    29 1
    29    30    13 1
@<TRIPOS>SUBSTRUCTURE
     1 LN5         1 TEMP              0 ****  ****    0 ROOT
