@<TRIPOS>MOLECULE
LN5
   30    29     1     0     0
SMALL
bcc


@<TRIPOS>ATOM
      1 CT1          0.0000     0.0000     0.0000 c3         1 LN5      -0.001100
      2 CH1          1.5300     0.0000     0.0000 c3         1 LN5      -0.091700
      3 CZ           2.0320     0.0000     1.4210 c2         1 LN5       0.448200
      4 NH2          1.1920    -0.0010     2.4030 n2         1 LN5      -0.790100
      5 NE           3.3800     0.0010     1.6710 nu         1 LN5      -0.486200
      6 CD           3.8680    -0.0000     3.0530 c3         1 LN5       0.180800
      7 CG           5.3970     0.0010     3.0520 c3         1 LN5      -0.061400
      8 CB           5.9080     0.0010     4.4950 c3         1 LN5      -0.015400
      9 CA           7.4390     0.0020     4.4940 c3         1 LN5      -0.203500
     10 C            7.9400     0.1250     5.9100 c          1 LN5       0.956600
     11 OA2          7.9740     1.3270     6.5080 o          1 LN5      -0.816800
     12 OA1          8.3140    -0.8580     6.5070 o          1 LN5      -0.816800
     13 N            7.9280    -1.2530     3.9080 nz         1 LN5       0.080400
     14 H1H2         0.2080    -0.0010     2.2210 hn         1 LN5       0.343400
     15 H1T1        -0.3610    -0.8850     0.5100 hc         1 LN5       0.011367
     16 H2T1        -0.3610     0.8840     0.5110 hc         1 LN5       0.011367
     17 H3T1        -0.3610     0.0000    -1.0210 hc         1 LN5       0.011367
     18 H1H1         1.8910     0.8850    -0.5110 hc         1 LN5       0.023200
     19 H2H1         1.8910    -0.8850    -0.5110 hc         1 LN5       0.023200
     20 HNE          4.0300     0.0040     0.9110 hn         1 LN5       0.282800
     21 H1D          3.5060     0.8840     3.5640 h1         1 LN5       0.033200
     22 H2D          3.5080    -0.8850     3.5630 h1         1 LN5       0.033200
     23 H1G          5.7590    -0.8820     2.5410 hc         1 LN5       0.003200
     24 H2G          5.7580     0.8870     2.5420 hc         1 LN5       0.003200
     25 H1B          5.5480    -0.8840     5.0050 hc         1 LN5       0.058200
     26 H2B          5.5470     0.8850     5.0060 hc         1 LN5       0.058200
     27 HA           7.8000     0.8390     3.9090 hx         1 LN5       0.086700
     28 H1N          7.3380    -2.0090     4.1960 hn         1 LN5       0.211133
     29 H2N          7.9170    -1.1820     2.9100 hn         1 LN5       0.211133
     30 HN3          8.8640    -1.4240     4.2200 hn         1 LN5       0.211133
@<TRIPOS>BOND
     1     1     2 1   
     2     1    15 1   
     3     1    16 1   
     4     1    17 1   
     5     2     3 1   
     6     2    18 1   
     7     2    19 1   
     8     3     4 2   
     9     3     5 1   
    10     4    14 1   
    11     5     6 1   
    12     5    20 1   
    13     6     7 1   
    14     6    21 1   
    15     6    22 1   
    16     7     8 1   
    17     7    23 1   
    18     7    24 1   
    19     8     9 1   
    20     8    25 1   
    21     8    26 1   
    22     9    10 1   
    23     9    13 1   
    24     9    27 1   
    25    10    11 1   
    26    10    12 1   
    27    13    28 1   
    28    13    29 1   
    29    13    30 1   
@<TRIPOS>SUBSTRUCTURE
     1 LN5         1 TEMP              0 ****  ****    0 ROOT
