@<TRIPOS>MOLECULE
LN6
   36    35     1     0     0
SMALL
bcc


@<TRIPOS>ATOM
      1 C            0.0000     0.0000     0.0000 c          1 LN6       0.956600
      2 N            1.9970     1.2000    -0.6920 nz         1 LN6       0.080400
      3 CA           1.5080     0.0000     0.0000 c3         1 LN6      -0.204500
      4 CB           2.0170     0.0000     1.4430 c3         1 LN6      -0.017400
      5 CD           4.0520    -0.1260     2.8880 c3         1 LN6       0.172800
      6 NE           5.5120    -0.2460     2.8900 nu         1 LN6      -0.550200
      7 CG           3.5420    -0.1250     1.4450 c3         1 LN6      -0.054400
      8 CZ           6.1950    -0.2670     4.0770 c2         1 LN6       0.461200
      9 OA1         -0.6700    -1.1460     0.2010 o          1 LN6      -0.814800
     10 OA2         -0.6040     1.0290    -0.1860 o          1 LN6      -0.814800
     11 CH1          7.6970    -0.3910     4.0790 c3         1 LN6      -0.044700
     12 NH2          5.5520    -0.1820     5.1950 n2         1 LN6      -0.765100
     13 CI1          9.7320    -0.5160     5.5240 c3         1 LN6      -0.031400
     14 CK1         10.2410    -0.5170     6.9660 c3         1 LN6       0.008900
     15 CT1          8.2070    -0.3910     5.5210 c3         1 LN6      -0.019400
     16 HN           2.9330     1.0450    -1.0100 hn         1 LN6       0.211133
     17 HNA          1.4070     1.3970    -1.4760 hn         1 LN6       0.211133
     18 HA           1.8690    -0.8840    -0.5110 hx         1 LN6       0.087700
     19 HB           1.7300     0.9250     1.9280 hc         1 LN6       0.057700
     20 HBA          1.5850    -0.8370     1.9780 hc         1 LN6       0.057700
     21 HD           3.6200    -0.9630     3.4230 h1         1 LN6       0.023700
     22 HDA          3.7650     0.7990     3.3730 h1         1 LN6       0.023700
     23 HNE          6.0110    -0.2920     2.0240 hn         1 LN6       0.290800
     24 HG           3.8290    -1.0500     0.9600 hc         1 LN6       0.008200
     25 HGA          3.9730     0.7120     0.9100 hc         1 LN6       0.008200
     26 HH1          7.9840    -1.3170     3.5950 hc         1 LN6       0.017700
     27 HH1A         8.1290     0.4450     3.5430 hc         1 LN6       0.017700
     28 HNH2         4.5550    -0.1000     5.1940 hn         1 LN6       0.324400
     29 HI1         10.0190    -1.4420     5.0400 hc         1 LN6       0.007200
     30 HI1A        10.1640     0.3210     4.9890 hc         1 LN6       0.007200
     31 HK1          9.8090    -1.3530     7.5020 hc         1 LN6       0.001367
     32 HK1A        11.3210    -0.6060     6.9670 hc         1 LN6       0.001367
     33 HK1B         9.9550     0.4090     7.4510 hc         1 LN6       0.001367
     34 HT1          7.9200     0.5350     6.0050 hc         1 LN6       0.032700
     35 HT1A         7.7740    -1.2270     6.0570 hc         1 LN6       0.032700
     36 HN3          1.9830     1.9780    -0.0620 hn         1 LN6       0.211133
@<TRIPOS>BOND
     1     1     3 1   
     2     1     9 1   
     3     1    10 1   
     4     2     3 1   
     5     2    16 1   
     6     2    17 1   
     7     2    36 1   
     8     3     4 1   
     9     3    18 1   
    10     4     7 1   
    11     4    19 1   
    12     4    20 1   
    13     5     6 1   
    14     5     7 1   
    15     5    21 1   
    16     5    22 1   
    17     6     8 1   
    18     6    23 1   
    19     7    24 1   
    20     7    25 1   
    21     8    11 1   
    22     8    12 2   
    23    11    15 1   
    24    11    26 1   
    25    11    27 1   
    26    12    28 1   
    27    13    14 1   
    28    13    15 1   
    29    13    29 1   
    30    13    30 1   
    31    14    31 1   
    32    14    32 1   
    33    14    33 1   
    34    15    34 1   
    35    15    35 1   
@<TRIPOS>SUBSTRUCTURE
     1 LN6         1 TEMP              0 ****  ****    0 ROOT
