@<TRIPOS>MOLECULE
molecule
   36    35     1     0     0
SMALL
bcc


@<TRIPOS>ATOM
      1 C            0.0000     0.0000     0.0000 c          1 LN6       0.869600
      2 N            1.9970     1.2000    -0.6920 nz         1 LN6      -0.791600
      3 CA           1.5080     0.0000     0.0000 c3         1 LN6      -0.019500
      4 CB           2.0170     0.0000     1.4430 c3         1 LN6      -0.085400
      5 CD           4.0520    -0.1260     2.8880 c3         1 LN6       0.253800
      6 NE           5.5120    -0.2460     2.8900 nu         1 LN6      -0.890200
      7 CG           3.5420    -0.1250     1.4450 c3         1 LN6      -0.123400
      8 CZ           6.1950    -0.2670     4.0770 c2         1 LN6       0.642200
      9 OA1         -0.6700    -1.1460     0.2010 o          1 LN6      -0.774300
     10 OA2         -0.6040     1.0290    -0.1860 o          1 LN6      -0.774300
     11 CH1          7.6970    -0.3910     4.0790 c3         1 LN6      -0.174700
     12 NH2          5.5520    -0.1820     5.1950 n2         1 LN6      -0.908100
     13 CI1          9.7320    -0.5160     5.5240 c3         1 LN6      -0.082400
     14 CK1         10.2410    -0.5170     6.9660 c3         1 LN6      -0.092100
     15 CT1          8.2070    -0.3910     5.5210 c3         1 LN6      -0.085400
     16 HN           1.9830     1.9780    -0.0620 hn         1 LN6       0.438800
     17 HNA          1.4070     1.3970    -1.4760 hn         1 LN6       0.438800
     18 HA           1.8690    -0.8840    -0.5110 hx         1 LN6       0.103700
     19 HB           1.7300     0.9250     1.9280 hc         1 LN6       0.090700
     20 HBA          1.5850    -0.8370     1.9780 hc         1 LN6       0.090700
     21 HD           3.7650     0.7990     3.3730 h1         1 LN6       0.060700
     22 HDA          3.6200    -0.9630     3.4230 h1         1 LN6       0.060700
     23 HNE          6.0080    -0.3340     2.0250 hn         1 LN6       0.431800
     24 HG           3.9730     0.7120     0.9100 hc         1 LN6       0.031200
     25 HGA          3.8290    -1.0500     0.9600 hc         1 LN6       0.031200
     26 HH1          8.1290     0.4450     3.5430 hc         1 LN6       0.056700
     27 HH1A         7.9840    -1.3170     3.5950 hc         1 LN6       0.056700
     28 HNH2         6.0520    -0.1980     6.0620 hn         1 LN6       0.412400
     29 HI1         10.1640     0.3210     4.9890 hc         1 LN6       0.041200
     30 HI1A        10.0190    -1.4420     5.0400 hc         1 LN6       0.041200
     31 HK1         11.3210    -0.6050     6.9670 hc         1 LN6       0.036367
     32 HK1A         9.9550     0.4090     7.4510 hc         1 LN6       0.036367
     33 HK1B         9.8100    -1.3540     7.5020 hc         1 LN6       0.036367
     34 HT1          7.9200     0.5350     6.0050 hc         1 LN6       0.051700
     35 HT1A         7.7740    -1.2270     6.0570 hc         1 LN6       0.051700
     36 HN3          2.9330     1.0450    -1.0090 hn         1 LN6       0.438800
@<TRIPOS>BOND
     1     9     1 1
     2     1     3 1
     3     1    10 1
     4     3     2 1
     5     2    16 1
     6     2    17 1
     7     4     3 1
     8     3    18 1
     9     7     4 1
    10     4    19 1
    11     4    20 1
    12     6     5 1
    13     5     7 1
    14     5    21 1
    15     5    22 1
    16     8     6 1
    17     6    23 1
    18     7    24 1
    19     7    25 1
    20    12     8 2
    21    11     8 1
    22    15    11 1
    23    11    26 1
    24    11    27 1
    25    12    28 1
    26    14    13 1
    27    13    15 1
    28    13    29 1
    29    13    30 1
    30    14    31 1
    31    14    32 1
    32    14    33 1
    33    15    34 1
    34    15    35 1
    35    36     2 1
@<TRIPOS>SUBSTRUCTURE
     1 LN6         1 TEMP              0 ****  ****    0 ROOT
