@<TRIPOS>MOLECULE
LN7
   39    38     1     0     0
SMALL
bcc


@<TRIPOS>ATOM
      1 C            0.0000     0.0000     0.0000 c          1 LN7       0.948600
      2 N            1.9970     1.1990    -0.6930 nz         1 LN7       0.083400
      3 CA           1.5060     0.0000     0.0000 c3         1 LN7      -0.202500
      4 CB           2.0170     0.0000     1.4420 c3         1 LN7      -0.018400
      5 CD           4.0510    -0.1250     2.8870 c3         1 LN7       0.140800
      6 NE           5.5150    -0.2460     2.8900 n7         1 LN7      -0.540200
      7 CG           3.5410    -0.1260     1.4460 c3         1 LN7      -0.044400
      8 CZ           6.0410    -0.2490     4.2610 c3         1 LN7       0.100700
      9 OA1         -0.6040     1.0310    -0.1770 o          1 LN7      -0.801300
     10 OA2         -0.6720    -1.1450     0.2010 o          1 LN7      -0.801300
     11 CH1          7.0870    -1.3550     4.4040 c3         1 LN7      -0.038400
     12 NH2          6.6590     1.0520     4.5510 nz         1 LN7       0.007400
     13 CI1          8.5920    -2.5460     6.0030 c3         1 LN7      -0.019400
     14 CK1          9.0490    -2.6310     7.4620 c3         1 LN7       0.007900
     15 CT1          7.5450    -1.4400     5.8620 c3         1 LN7      -0.040400
     16 HN           1.9000     1.9940    -0.0930 hn         1 LN7       0.211800
     17 HNA          1.4640     1.3430    -1.5280 hn         1 LN7       0.211800
     18 HA           1.8670    -0.8850    -0.5100 hx         1 LN7       0.092700
     19 HB           1.5840    -0.8370     1.9780 hc         1 LN7       0.057200
     20 HBA          1.7300     0.9260     1.9270 hc         1 LN7       0.057200
     21 HD           3.6180    -0.9610     3.4240 h1         1 LN7       0.025700
     22 HDA          3.7640     0.8010     3.3710 h1         1 LN7       0.025700
     23 HNE          5.9140     0.5180     2.3810 hn         1 LN7       0.254800
     24 HG           3.8280    -1.0520     0.9620 hc         1 LN7       0.017200
     25 HGA          3.9730     0.7100     0.9090 hc         1 LN7       0.017200
     26 HZ           5.2310    -0.4270     4.9580 hx         1 LN7       0.096700
     27 HH1          6.6540    -2.3030     4.1050 hc         1 LN7       0.061700
     28 HH1A         7.9380    -1.1320     3.7710 hc         1 LN7       0.061700
     29 HNH2         6.4650     1.3100     5.4980 hn         1 LN7       0.235800
     30 HNHA         7.6490     0.9870     4.4190 hn         1 LN7       0.235800
     31 HI1          9.4430    -2.3260     5.3700 hc         1 LN7       0.025700
     32 HI1A         8.1560    -3.4920     5.7060 hc         1 LN7       0.025700
     33 HK1          8.1950    -2.8320     8.0970 hc         1 LN7       0.011700
     34 HK1A         9.5030    -1.6920     7.7530 hc         1 LN7       0.011700
     35 HK1B         9.7730    -3.4300     7.5670 hc         1 LN7       0.011700
     36 HT1          6.6940    -1.6650     6.4950 hc         1 LN7       0.010200
     37 HT1A         7.9770    -0.4930     6.1610 hc         1 LN7       0.010200
     38 HN3          2.9630     1.0780    -0.9250 hn         1 LN7       0.211800
     39 HH23         6.2950     1.7410     3.9240 hn         1 LN7       0.235800
@<TRIPOS>BOND
     1     1     3 1   
     2     1     9 1   
     3     1    10 1   
     4     2     3 1   
     5     2    16 1   
     6     2    17 1   
     7     2    38 1   
     8     3     4 1   
     9     3    18 1   
    10     4     7 1   
    11     4    19 1   
    12     4    20 1   
    13     5     6 1   
    14     5     7 1   
    15     5    21 1   
    16     5    22 1   
    17     6     8 1   
    18     6    23 1   
    19     7    24 1   
    20     7    25 1   
    21     8    11 1   
    22     8    12 1   
    23     8    26 1   
    24    11    15 1   
    25    11    27 1   
    26    11    28 1   
    27    12    29 1   
    28    12    30 1   
    29    12    39 1   
    30    13    14 1   
    31    13    15 1   
    32    13    31 1   
    33    13    32 1   
    34    14    33 1   
    35    14    34 1   
    36    14    35 1   
    37    15    36 1   
    38    15    37 1   
@<TRIPOS>SUBSTRUCTURE
     1 LN7         1 TEMP              0 ****  ****    0 ROOT
