@<TRIPOS>MOLECULE
molecule
   39    38     1     0     0
SMALL
bcc


@<TRIPOS>ATOM
      1 C            0.0000     0.0000     0.0000 c          1 LN7       0.863600
      2 N            1.9970     1.1990    -0.6930 nz         1 LN7      -0.792600
      3 CA           1.5060     0.0000     0.0000 c3         1 LN7      -0.016500
      4 CB           2.0170     0.0000     1.4420 c3         1 LN7      -0.089400
      5 CD           4.0510    -0.1250     2.8870 c3         1 LN7       0.143800
      6 NE           5.5150    -0.2460     2.8900 n7         1 LN7      -0.794200
      7 CG           3.5410    -0.1260     1.4460 c3         1 LN7      -0.101400
      8 CZ           6.0410    -0.2490     4.2610 c3         1 LN7       0.338700
      9 OA1         -0.6040     1.0310    -0.1770 o          1 LN7      -0.758300
     10 OA2         -0.6720    -1.1450     0.2010 o          1 LN7      -0.758300
     11 CH1          7.0870    -1.3550     4.4040 c3         1 LN7      -0.098400
     12 NH2          6.6590     1.0520     4.5510 nz         1 LN7      -0.843600
     13 CI1          8.5920    -2.5460     6.0030 c3         1 LN7      -0.078400
     14 CK1          9.0490    -2.6310     7.4620 c3         1 LN7      -0.093100
     15 CT1          7.5450    -1.4400     5.8620 c3         1 LN7      -0.101400
     16 HN           1.9000     1.9940    -0.0930 hn         1 LN7       0.440133
     17 HNA          1.4640     1.3430    -1.5280 hn         1 LN7       0.440133
     18 HA           1.8670    -0.8850    -0.5100 hx         1 LN7       0.110700
     19 HB           1.5840    -0.8370     1.9780 hc         1 LN7       0.089700
     20 HBA          1.7300     0.9260     1.9270 hc         1 LN7       0.089700
     21 HD           3.6180    -0.9610     3.4240 h1         1 LN7       0.055700
     22 HDA          3.7640     0.8010     3.3710 h1         1 LN7       0.055700
     23 HNE          5.9140     0.5180     2.3810 hn         1 LN7       0.361800
     24 HG           3.8280    -1.0520     0.9620 hc         1 LN7       0.046700
     25 HGA          3.9730     0.7100     0.9090 hc         1 LN7       0.046700
     26 HZ           5.2310    -0.4270     4.9580 hx         1 LN7       0.117700
     27 HH1          6.6540    -2.3030     4.1050 hc         1 LN7       0.094700
     28 HH1A         7.9380    -1.1320     3.7710 hc         1 LN7       0.094700
     29 HNH2         6.4650     1.3100     5.4980 hn         1 LN7       0.454800
     30 HNHA         7.6490     0.9870     4.4190 hn         1 LN7       0.454800
     31 HI1          9.4430    -2.3260     5.3700 hc         1 LN7       0.056200
     32 HI1A         8.1560    -3.4920     5.7060 hc         1 LN7       0.056200
     33 HK1          8.1950    -2.8320     8.0970 hc         1 LN7       0.046700
     34 HK1A         9.5030    -1.6920     7.7530 hc         1 LN7       0.046700
     35 HK1B         9.7730    -3.4300     7.5670 hc         1 LN7       0.046700
     36 HT1          6.6940    -1.6650     6.4950 hc         1 LN7       0.038700
     37 HT1A         7.9770    -0.4930     6.1610 hc         1 LN7       0.038700
     38 HN3          2.9630     1.0780    -0.9250 hn         1 LN7       0.440133
     39 HH23         6.2950     1.7410     3.9240 hn         1 LN7       0.454800
@<TRIPOS>BOND
     1    10     1 1
     2     3     1 1
     3     1     9 1
     4     2     3 1
     5     2    16 1
     6     2    17 1
     7     3     4 1
     8     3    18 1
     9     4     7 1
    10     4    19 1
    11     4    20 1
    12     7     5 1
    13     5     6 1
    14     5    21 1
    15     5    22 1
    16     6     8 1
    17     6    23 1
    18     7    24 1
    19     7    25 1
    20    11     8 1
    21     8    12 1
    22     8    26 1
    23    11    15 1
    24    11    27 1
    25    11    28 1
    26    12    29 1
    27    12    30 1
    28    15    13 1
    29    13    14 1
    30    13    31 1
    31    13    32 1
    32    14    33 1
    33    14    34 1
    34    14    35 1
    35    15    36 1
    36    15    37 1
    37    38     2 1
    38    39    12 1
@<TRIPOS>SUBSTRUCTURE
     1 LN7         1 TEMP              0 ****  ****    0 ROOT
