@<TRIPOS>MOLECULE
LNA
   53    53     1     0     0
SMALL
bcc


@<TRIPOS>ATOM
      1 O20          0.0000     0.0000     0.0000 o          1 LNA      -0.639500
      2 C1           1.3420     0.0000     0.0000 c2         1 LNA       0.400000
      3 O19          1.9460     0.0000     1.0460 o          1 LNA      -0.639500
      4 C2           2.0950     0.0000    -1.3050 c3         1 LNA      -0.163000
      5 C3           3.6000     0.0010    -1.0260 c3         1 LNA      -0.095000
      6 C4           4.3650    -0.0000    -2.3510 c3         1 LNA      -0.116000
      7 C5           5.8680     0.0010    -2.0710 c3         1 LNA      -0.108000
      8 C6           6.6340     0.0010    -3.3970 c3         1 LNA      -0.107000
      9 C7           8.1370     0.0010    -3.1170 c3         1 LNA      -0.123000
     10 C8           8.9020     0.0010    -4.4420 DU         1 LNA      -0.190000
     11 C9          10.3840     0.0020    -4.1670 c2         1 LNA      -0.319000
     12 C10         11.1330    -0.9780    -4.6090 c2         1 LNA      -0.312000
     13 N21         12.6040    -0.9100    -4.4600 no         1 LNA       1.283000
     14 O22         13.1180     0.0560    -3.9260 o          1 LNA      -0.591500
     15 O23         13.3000    -1.8220    -4.8720 o          1 LNA      -0.591500
     16 C11         10.4970    -2.1740    -5.2700 c3         1 LNA      -0.070000
     17 C12         10.3310    -1.9040    -6.7440 c2         1 LNA      -0.181000
     18 C13         10.7970    -2.7560    -7.6220 c2         1 LNA      -0.115000
     19 C14         11.3210    -4.0940    -7.1690 c3         1 LNA      -0.090000
     20 C15         10.6120    -5.2090    -7.9430 c3         1 LNA      -0.101000
     21 C16         11.1450    -6.5670    -7.4830 c3         1 LNA      -0.109000
     22 C17         10.4370    -7.6810    -8.2560 c3         1 LNA      -0.107000
     23 C18         10.9690    -9.0400    -7.7960 c3         1 LNA      -0.111000
     24 H2           1.8330     0.8840    -1.8730 hc         1 LNA       0.043500
     25 H2A          1.8340    -0.8850    -1.8730 hc         1 LNA       0.043500
     26 H3           3.8620    -0.8830    -0.4570 hc         1 LNA       0.060500
     27 H3A          3.8620     0.8860    -0.4590 hc         1 LNA       0.060500
     28 H4           4.1020     0.8840    -2.9190 hc         1 LNA       0.045000
     29 H4A          4.1030    -0.8850    -2.9180 hc         1 LNA       0.045000
     30 H5           6.1300    -0.8830    -1.5030 hc         1 LNA       0.055500
     31 H5A          6.1290     0.8860    -1.5030 hc         1 LNA       0.055500
     32 H6           6.3720    -0.8830    -3.9650 hc         1 LNA       0.055500
     33 H6A          6.3720     0.8860    -3.9650 hc         1 LNA       0.055500
     34 H7           8.3990     0.8860    -2.5490 hc         1 LNA       0.070000
     35 H7A          8.3990    -0.8830    -2.5490 hc         1 LNA       0.070000
     36 H8           8.6410    -0.8830    -5.0100 ha         1 LNA       0.099500
     37 H8A          8.6400     0.8860    -5.0100 ha         1 LNA       0.099500
     38 H9           9.6920    -0.5560    -3.5470 DU         1 LNA       0.358000
     39 H11         11.1290    -3.0420    -5.1310 hc         1 LNA       0.091000
     40 H11A         9.5260    -2.3590    -4.8260 hc         1 LNA       0.091000
     41 H12          9.8100    -1.0140    -7.0760 ha         1 LNA       0.112000
     42 H13         10.8350    -2.4870    -8.6710 ha         1 LNA       0.104000
     43 H14         11.1330    -4.2150    -6.1090 hc         1 LNA       0.071000
     44 H14A        12.3870    -4.1470    -7.3550 hc         1 LNA       0.071000
     45 H15          9.5470    -5.1560    -7.7560 hc         1 LNA       0.054000
     46 H15A        10.8000    -5.0870    -9.0030 hc         1 LNA       0.054000
     47 H16         12.2110    -6.6190    -7.6690 hc         1 LNA       0.055000
     48 H16A        10.9570    -6.6880    -6.4230 hc         1 LNA       0.055000
     49 H17         10.6250    -7.5590    -9.3160 hc         1 LNA       0.051500
     50 H17A         9.3710    -7.6280    -8.0700 hc         1 LNA       0.051500
     51 H18         10.4670    -9.8280    -8.3440 hc         1 LNA       0.039000
     52 H18A        10.7810    -9.1610    -6.7360 hc         1 LNA       0.039000
     53 H18B        12.0350    -9.0920    -7.9830 hc         1 LNA       0.039000
@<TRIPOS>BOND
     1     1     2 1   
     2     2     3 1   
     3     2     4 1   
     4     4     5 1   
     5     4    24 1   
     6     4    25 1   
     7     5     6 1   
     8     5    26 1   
     9     5    27 1   
    10     6     7 1   
    11     6    28 1   
    12     6    29 1   
    13     7     8 1   
    14     7    30 1   
    15     7    31 1   
    16     8     9 1   
    17     8    32 1   
    18     8    33 1   
    19     9    10 1   
    20     9    34 1   
    21     9    35 1   
    22    10    11 1   
    23    10    36 1   
    24    10    37 1   
    25    10    38 1   
    26    11    12 1   
    27    11    38 1   
    28    12    13 1   
    29    12    16 1   
    30    13    14 1   
    31    13    15 1   
    32    16    17 1   
    33    16    39 1   
    34    16    40 1   
    35    17    18 1   
    36    17    41 1   
    37    18    19 1   
    38    18    42 1   
    39    19    20 1   
    40    19    43 1   
    41    19    44 1   
    42    20    21 1   
    43    20    45 1   
    44    20    46 1   
    45    21    22 1   
    46    21    47 1   
    47    21    48 1   
    48    22    23 1   
    49    22    49 1   
    50    22    50 1   
    51    23    51 1   
    52    23    52 1   
    53    23    53 1   
@<TRIPOS>SUBSTRUCTURE
     1 LNA         1 TEMP              0 ****  ****    0 ROOT
