@<TRIPOS>MOLECULE
molecule
   53    52     1     0     0
SMALL
bcc


@<TRIPOS>ATOM
      1 O20          0.0000     0.0000     0.0000 o          1 LNB      -0.857300
      2 C1           1.3420     0.0000     0.0000 c          1 LNB       0.891600
      3 O19          1.9460     0.0000     1.0460 o          1 LNB      -0.857300
      4 C2           2.0960     0.0000    -1.3050 c3         1 LNB      -0.183400
      5 C3           3.6000     0.0000    -1.0250 c3         1 LNB      -0.063400
      6 C4           4.3650     0.0000    -2.3500 c3         1 LNB      -0.088400
      7 C5           5.8700     0.0000    -2.0700 c3         1 LNB      -0.080400
      8 C6           6.6340     0.0010    -3.3960 c3         1 LNB      -0.092400
      9 C7           8.1380    -0.0000    -3.1160 c3         1 LNB      -0.073400
     10 C8           8.9040     0.0010    -4.4410 c3         1 LNB      -0.106200
     11 C9          10.3860    -0.0000    -4.1650 c2         1 LNB      -0.156200
     12 C10         11.1570    -0.8950    -4.7320 c2         1 LNB      -0.284200
     13 C11         10.5890    -1.8330    -5.7650 c3         1 LNB      -0.073000
     14 C12         11.4290    -1.7710    -7.0150 c2         1 LNB      -0.099300
     15 N21         11.0630    -0.8420    -8.1070 no         1 LNB       0.261100
     16 O22         10.0820    -0.1280    -7.9970 o          1 LNB      -0.198500
     17 O23         11.7410    -0.7910    -9.1170 o          1 LNB      -0.198500
     18 C13         12.4830    -2.5390    -7.1340 c2         1 LNB      -0.343200
     19 C14         12.9390    -3.3810    -5.9690 c3         1 LNB      -0.114200
     20 C15         12.9590    -4.8540    -6.3830 c3         1 LNB      -0.113400
     21 C16         13.4210    -5.7080    -5.2010 c3         1 LNB      -0.079400
     22 C17         13.4430    -7.1810    -5.6120 c3         1 LNB      -0.084400
     23 C18         13.9050    -8.0360    -4.4300 c3         1 LNB      -0.091100
     24 H2           1.8340     0.8840    -1.8730 hc         1 LNB       0.027200
     25 H2A          1.8340    -0.8850    -1.8730 hc         1 LNB       0.027200
     26 H3           3.8610     0.8850    -0.4570 hc         1 LNB       0.045200
     27 H3A          3.8620    -0.8840    -0.4570 hc         1 LNB       0.045200
     28 H4           4.1030     0.8850    -2.9180 hc         1 LNB       0.029200
     29 H4A          4.1030    -0.8840    -2.9180 hc         1 LNB       0.029200
     30 H5           6.1310    -0.8850    -1.5030 hc         1 LNB       0.040700
     31 H5A          6.1310     0.8840    -1.5020 hc         1 LNB       0.040700
     32 H6           6.3720    -0.8830    -3.9640 hc         1 LNB       0.036200
     33 H6A          6.3730     0.8860    -3.9630 hc         1 LNB       0.036200
     34 H7           8.3990    -0.8860    -2.5480 hc         1 LNB       0.053200
     35 H7A          8.4000     0.8830    -2.5470 hc         1 LNB       0.053200
     36 H8           8.6420    -0.8830    -5.0100 hc         1 LNB       0.058700
     37 H8A          8.6420     0.8860    -5.0080 hc         1 LNB       0.058700
     38 H9           9.9730     0.4770    -5.0460 ha         1 LNB       0.205000
     39 H10         10.8370    -0.6490    -5.7370 ha         1 LNB       0.176000
     40 H11         10.5940    -2.8450    -5.3770 hc         1 LNB       0.081700
     41 H11A         9.5720    -1.5410    -5.9990 hc         1 LNB       0.081700
     42 H13         12.0370    -3.5040    -6.9240 ha         1 LNB       0.361000
     43 H14         13.9340    -3.0760    -5.6710 hc         1 LNB       0.096200
     44 H14A        12.2560    -3.2480    -5.1390 hc         1 LNB       0.096200
     45 H15         11.9640    -5.1590    -6.6820 hc         1 LNB       0.057700
     46 H15A        13.6420    -4.9860    -7.2130 hc         1 LNB       0.057700
     47 H16         14.4170    -5.4030    -4.9010 hc         1 LNB       0.049700
     48 H16A        12.7380    -5.5750    -4.3700 hc         1 LNB       0.049700
     49 H17         12.4470    -7.4870    -5.9120 hc         1 LNB       0.042200
     50 H17A        14.1260    -7.3140    -6.4430 hc         1 LNB       0.042200
     51 H18         13.9190    -9.0790    -4.7230 hc         1 LNB       0.035700
     52 H18A        13.2210    -7.9030    -3.6000 hc         1 LNB       0.035700
     53 H18B        14.9000    -7.7300    -4.1310 hc         1 LNB       0.035700
@<TRIPOS>BOND
     1     2     1 1
     2     4     2 1
     3     3     2 1
     4     5     4 1
     5     4    24 1
     6     4    25 1
     7     6     5 1
     8     5    26 1
     9     5    27 1
    10     7     6 1
    11     6    28 1
    12     6    29 1
    13     8     7 1
    14     7    30 1
    15     7    31 1
    16     9     8 1
    17     8    32 1
    18     8    33 1
    19     9    10 1
    20     9    34 1
    21     9    35 1
    22    11    10 1
    23    10    36 1
    24    10    37 1
    25    12    11 2
    26    11    38 1
    27    13    12 1
    28    12    39 1
    29    14    13 1
    30    13    40 1
    31    13    41 1
    32    15    14 1
    33    18    14 2
    34    16    15 1
    35    15    17 1
    36    18    19 1
    37    18    42 1
    38    19    20 1
    39    19    43 1
    40    19    44 1
    41    21    20 1
    42    20    45 1
    43    20    46 1
    44    21    22 1
    45    21    47 1
    46    21    48 1
    47    23    22 1
    48    22    49 1
    49    22    50 1
    50    23    51 1
    51    23    52 1
    52    23    53 1
@<TRIPOS>SUBSTRUCTURE
     1 LNB         1 TEMP              0 ****  ****    0 ROOT
