@<TRIPOS>MOLECULE
molecule
   41    40     1     0     0
SMALL
bcc


@<TRIPOS>ATOM
      1 O11          0.0000     0.0000     0.0000 o          1 LNG      -0.838300
      2 O1           1.9470     0.0020    -1.0470 o          1 LNG      -0.838300
      3 C1           1.3420     0.0000     0.0000 c          1 LNG       0.877600
      4 C2           2.0960     0.0000     1.3050 c3         1 LNG      -0.093200
      5 C3           3.5770     0.0010     1.0310 c2         1 LNG      -0.099200
      6 C4           4.3460     0.9000     1.5930 c2         1 LNG      -0.360200
      7 C5           3.7840     1.8240     2.6410 c3         1 LNG       0.103800
      8 C6           4.6460     1.7480     3.9030 c3         1 LNG      -0.099400
      9 C7           4.0750     2.6860     4.9690 c3         1 LNG      -0.091400
     10 C8           4.9360     2.6090     6.2310 c3         1 LNG      -0.080400
     11 C9           4.3660     3.5470     7.2960 c3         1 LNG      -0.083400
     12 C10          5.2270     3.4710     8.5580 c3         1 LNG      -0.083400
     13 C11          4.6570     4.4090     9.6230 c3         1 LNG      -0.076400
     14 C12          5.5180     4.3330    10.8840 c3         1 LNG      -0.077700
     15 C13          5.0230     5.3610    11.9040 c3         1 LNG      -0.087600
     16 C14          5.4180     2.9290    11.4860 c3         1 LNG      -0.087600
     17 H2C1         1.8330     0.8840     1.8730 hc         1 LNG       0.042200
     18 H2C2         1.8340    -0.8850     1.8730 hc         1 LNG       0.042200
     19 H3C1         3.1730    -0.4870     1.9100 ha         1 LNG       0.075000
     20 H4C1         3.8210     1.8060     1.3140 ha         1 LNG       0.061000
     21 H5C1         3.7840     2.8390     2.2650 hc         1 LNG       0.034200
     22 H5C2         2.7700     1.5260     2.8780 hc         1 LNG       0.034200
     23 H6C1         4.6470     0.7320     4.2790 hc         1 LNG       0.046200
     24 H6C2         5.6600     2.0460     3.6660 hc         1 LNG       0.046200
     25 H7C1         3.0600     2.3880     5.2050 hc         1 LNG       0.037700
     26 H7C2         4.0740     3.7020     4.5930 hc         1 LNG       0.037700
     27 H8C1         5.9510     2.9060     5.9940 hc         1 LNG       0.039200
     28 H8C2         4.9360     1.5930     6.6070 hc         1 LNG       0.039200
     29 H9C1         3.3510     3.2500     7.5340 hc         1 LNG       0.039700
     30 H9C2         4.3650     4.5630     6.9200 hc         1 LNG       0.039700
     31 H101         6.2420     3.7690     8.3210 hc         1 LNG       0.040200
     32 H102         5.2280     2.4550     8.9340 hc         1 LNG       0.040200
     33 H111         3.6420     4.1110     9.8600 hc         1 LNG       0.040700
     34 H112         4.6560     5.4250     9.2460 hc         1 LNG       0.040700
     35 H12          6.5500     4.5440    10.6310 hc         1 LNG       0.047700
     36 H131         5.6420     5.3170    12.7910 hc         1 LNG       0.031533
     37 H132         5.0790     6.3530    11.4730 hc         1 LNG       0.031533
     38 H133         3.9960     5.1400    12.1690 hc         1 LNG       0.031533
     39 H141         5.6340     2.9740    12.5470 hc         1 LNG       0.031533
     40 H142         6.1320     2.2760    11.0000 hc         1 LNG       0.031533
     41 H143         4.4170     2.5430    11.3380 hc         1 LNG       0.031533
@<TRIPOS>BOND
     1     1     3 1
     2     2     3 1
     3     3     4 1
     4     4     5 1
     5     4    17 1
     6     4    18 1
     7     5     6 2
     8     5    19 1
     9     6     7 1
    10     6    20 1
    11     7     8 1
    12     7    21 1
    13     7    22 1
    14     8     9 1
    15     8    23 1
    16     8    24 1
    17     9    10 1
    18     9    25 1
    19     9    26 1
    20    10    11 1
    21    10    27 1
    22    10    28 1
    23    11    12 1
    24    11    29 1
    25    11    30 1
    26    12    13 1
    27    12    31 1
    28    12    32 1
    29    13    14 1
    30    13    33 1
    31    13    34 1
    32    14    15 1
    33    14    16 1
    34    14    35 1
    35    15    36 1
    36    15    37 1
    37    15    38 1
    38    16    39 1
    39    16    40 1
    40    16    41 1
@<TRIPOS>SUBSTRUCTURE
     1 LNG         1 TEMP              0 ****  ****    0 ROOT
