@<TRIPOS>MOLECULE
LNG
   41    40     1     0     0
SMALL
bcc


@<TRIPOS>ATOM
      1 O11         0.3460    0.4270   -1.1060 o         1 LNG     -0.848300
      2 O1          2.1710   -0.7970   -1.5010 o         1 LNG     -0.848300
      3 C1          1.4710   -0.0420   -0.7670 c         1 LNG      0.911600
      4 C2          1.9860    0.3260    0.6390 c3        1 LNG     -0.187200
      5 C3          3.4510    0.2010    0.7720 c2        1 LNG     -0.087200
      6 C4          4.1780    0.7150    1.7720 c2        1 LNG     -0.271200
      7 C5          3.6020    1.4990    2.8900 c3        1 LNG     -0.029200
      8 C6          4.5660    1.6340    4.0510 c3        1 LNG     -0.074400
      9 C7          3.9540    2.4280    5.1850 c3        1 LNG     -0.080400
     10 C8          4.9150    2.5640    6.3460 c3        1 LNG     -0.078400
     11 C9          4.3020    3.3570    7.4800 c3        1 LNG     -0.079400
     12 C10         5.2640    3.4930    8.6420 c3        1 LNG     -0.078400
     13 C11         4.6460    4.2850    9.7740 c3        1 LNG     -0.075400
     14 C12         5.6000    4.4610   10.9470 c3        1 LNG     -0.068700
     15 C13         5.1260    5.5890   11.8410 c3        1 LNG     -0.089100
     16 C14         5.7320    3.1830   11.7490 c3        1 LNG     -0.089100
     17 H2C1        1.4870   -0.3670    1.3670 hc        1 LNG      0.037200
     18 H2C2        1.6530    1.3670    0.8850 hc        1 LNG      0.037200
     19 H3C1        3.9320   -0.3710   -0.0450 ha        1 LNG      0.149000
     20 H4C1        5.2690    0.5810    1.7970 ha        1 LNG      0.096000
     21 H5C1        2.6530    1.0120    3.2460 hc        1 LNG      0.038200
     22 H5C2        3.3180    2.5230    2.5200 hc        1 LNG      0.038200
     23 H6C1        5.5060    2.1390    3.7040 hc        1 LNG      0.032700
     24 H6C2        4.8560    0.6150    4.4180 hc        1 LNG      0.032700
     25 H7C1        3.0140    1.9220    5.5320 hc        1 LNG      0.038200
     26 H7C2        3.6620    3.4460    4.8160 hc        1 LNG      0.038200
     27 H8C1        5.8550    3.0700    5.9990 hc        1 LNG      0.036200
     28 H8C2        5.2070    1.5450    6.7140 hc        1 LNG      0.036200
     29 H9C1        4.0110    4.3760    7.1110 hc        1 LNG      0.038700
     30 H9C2        3.3620    2.8520    7.8270 hc        1 LNG      0.038700
     31 H101        6.2020    4.0000    8.2940 hc        1 LNG      0.037700
     32 H102        5.5550    2.4720    9.0060 hc        1 LNG      0.037700
     33 H111        4.3460    5.2960    9.3900 hc        1 LNG      0.039700
     34 H112        3.7120    3.7740   10.1260 hc        1 LNG      0.039700
     35 H12         6.6160    4.7320   10.5420 hc        1 LNG      0.045700
     36 H131        4.1010    5.3760   12.2290 hc        1 LNG      0.031033
     37 H132        5.8160    5.7120   12.7100 hc        1 LNG      0.031033
     38 H133        5.0960    6.5500   11.2730 hc        1 LNG      0.031033
     39 H141        6.1110    2.3530   11.1050 hc        1 LNG      0.031033
     40 H142        4.7430    2.8790   12.1700 hc        1 LNG      0.031033
     41 H143        6.4460    3.3290   12.5950 hc        1 LNG      0.031033
@<TRIPOS>BOND
     1    1    3 1   
     2    2    3 1   
     3    3    4 1   
     4    4    5 1   
     5    4   17 1   
     6    4   18 1   
     7    5    6 2   
     8    5   19 1   
     9    6    7 1   
    10    6   20 1   
    11    7    8 1   
    12    7   21 1   
    13    7   22 1   
    14    8    9 1   
    15    8   23 1   
    16    8   24 1   
    17    9   10 1   
    18    9   25 1   
    19    9   26 1   
    20   10   11 1   
    21   10   27 1   
    22   10   28 1   
    23   11   12 1   
    24   11   29 1   
    25   11   30 1   
    26   12   13 1   
    27   12   31 1   
    28   12   32 1   
    29   13   14 1   
    30   13   33 1   
    31   13   34 1   
    32   14   15 1   
    33   14   16 1   
    34   14   35 1   
    35   15   36 1   
    36   15   37 1   
    37   15   38 1   
    38   16   39 1   
    39   16   40 1   
    40   16   41 1   
@<TRIPOS>SUBSTRUCTURE
     1 LNG         1 TEMP              0 ****  ****    0 ROOT
