@<TRIPOS>MOLECULE
LNH
   53    59     1     0     0
SMALL
bcc


@<TRIPOS>ATOM
      1 C1           0.0000     0.0000     0.0000 c3         1 LNH      -0.138000
      2 C2           1.5070     0.0000     0.0000 c2         1 LNH       0.190000
      3 O3           2.1130     0.0000     1.0500 o          1 LNH      -0.352000
      4 N4           2.1800     0.0010    -1.1680 ns         1 LNH       0.106000
      5 C5           3.5780     0.1130    -1.1700 ca         1 LNH      -0.070000
      6 C6           4.3240    -0.5380    -2.1500 ca         1 LNH      -0.173000
      7 C7           5.6980    -0.4380    -2.1650 ca         1 LNH      -0.069000
      8 C8           6.3510     0.3190    -1.1970 ca         1 LNH      -0.264000
      9 C9           5.6000     0.9760    -0.2100 ca         1 LNH      -0.038000
     10 C10          4.2100     0.8730    -0.2040 ca         1 LNH      -0.047000
     11 C11          6.5760     1.6760     0.6440 c2         1 LNH      -0.224000
     12 C12          7.8050     1.4040     0.1320 c2         1 LNH      -0.126000
     13 N13          7.6810     0.6010    -0.9590 na         1 LNH       0.464000
     14 C14          8.8000     0.1050    -1.7650 c3         1 LNH      -0.578000
     15 C15          9.0150     1.0320    -2.9630 DU         1 LNH      -0.210000
     16 C16         10.1650     0.5210    -3.7930 c3         1 LNH       0.438000
     17 O17         10.7530    -0.4800    -3.4580 o          1 LNH      -0.571000
     18 O18         10.5380     1.1800    -4.9010 o          1 LNH      -0.571000
     19 C19          6.2760     2.5100     1.8260 c2         1 LNH       0.174000
     20 C20          7.3230     3.1150     2.5420 c2         1 LNH      -0.352000
     21 C21          7.0270     3.8830     3.6320 c2         1 LNH       0.022000
     22 N22          5.7150     4.0440     3.9990 na         1 LNH       0.406000
     23 C23          4.7270     3.4370     3.2740 c2         1 LNH      -0.069000
     24 N24          5.0180     2.6920     2.2090 n2         1 LNH      -0.082000
     25 C25          3.5060     3.7830     3.8860 c2         1 LNH      -0.200000
     26 C26          3.8190     4.6070     4.9840 c2         1 LNH       0.011000
     27 N27          5.1140     4.7550     5.0440 n2         1 LNH      -0.269000
     28 C28          2.1970     3.3750     3.4710 c1         1 LNH      -0.011000
     29 N29          1.1520     3.0610     3.1570 n1         1 LNH      -0.118000
     30 N30          8.0330     4.4890     4.3540 nu         1 LNH      -0.354000
     31 C31          9.4310     4.3110     3.9540 cx         1 LNH       0.161000
     32 C32         10.5010     4.4740     5.0350 cx         1 LNH      -0.339000
     33 C33         10.3300     5.5480     3.9580 cx         1 LNH      -0.339000
     34 H1          -0.3610    -0.9800    -0.2880 hc         1 LNH       0.058667
     35 H1A         -0.3610     0.7390    -0.7050 hc         1 LNH       0.058667
     36 H1B         -0.3610     0.2410     0.9930 hc         1 LNH       0.058667
     37 HN4          1.6800    -0.0220    -2.0340 hn         1 LNH       0.066000
     38 H6           4.0610    -0.4260    -3.1950 ha         1 LNH       0.108000
     39 H7           6.2670    -0.9170    -2.9520 ha         1 LNH       0.100000
     40 H10          4.0750     1.9480    -0.1890 ha         1 LNH       0.137000
     41 H12          8.7470     1.7960     0.4970 h4         1 LNH       0.147000
     42 H14          8.7820    -0.9780    -1.7790 h1         1 LNH       0.155000
     43 H14A         8.7100     0.4800    -2.7770 DU         1 LNH       0.170000
     44 H15          9.1280     0.4390    -3.8630 DU         1 LNH       0.171000
     45 H15A         8.1600     1.6890    -3.0690 ha         1 LNH       0.102000
     46 H20          8.0300     3.6790     1.9450 ha         1 LNH       0.133000
     47 H26          3.1060     5.0600     5.6630 h4         1 LNH       0.138000
     48 HN30         8.9870     4.3840     4.0680 hn         1 LNH       0.244000
     49 H31          9.7040     4.0970     2.9280 h1         1 LNH       0.132000
     50 H32         11.4760     4.7900     4.6830 hc         1 LNH       0.153000
     51 H32A        10.1410     4.7950     6.0050 hc         1 LNH       0.153000
     52 H33          9.8450     6.4780     4.2290 hc         1 LNH       0.153000
     53 H33A        11.3640     5.3740     4.2290 hc         1 LNH       0.153000
@<TRIPOS>BOND
     1     1     2 1   
     2     1    34 1   
     3     1    35 1   
     4     1    36 1   
     5     2     3 1   
     6     2     4 1   
     7     4     5 1   
     8     4    37 1   
     9     5     6 1   
    10     5    10 1   
    11     6     7 1   
    12     6    38 1   
    13     7     8 1   
    14     7    39 1   
    15     8     9 1   
    16     8    13 1   
    17     9    10 1   
    18     9    11 1   
    19    10    40 1   
    20    11    12 1   
    21    11    19 1   
    22    12    13 1   
    23    12    41 1   
    24    13    14 1   
    25    14    15 1   
    26    14    42 1   
    27    14    43 1   
    28    15    16 1   
    29    15    43 1   
    30    15    44 1   
    31    15    45 1   
    32    16    17 1   
    33    16    18 1   
    34    16    44 1   
    35    19    20 1   
    36    19    24 1   
    37    20    21 1   
    38    20    46 1   
    39    21    22 1   
    40    21    30 1   
    41    22    23 1   
    42    22    27 1   
    43    23    24 1   
    44    23    25 1   
    45    25    26 1   
    46    25    28 1   
    47    26    27 1   
    48    26    47 1   
    49    28    29 1   
    50    30    31 1   
    51    30    48 1   
    52    31    32 1   
    53    31    33 1   
    54    31    49 1   
    55    32    33 1   
    56    32    50 1   
    57    32    51 1   
    58    33    52 1   
    59    33    53 1   
@<TRIPOS>SUBSTRUCTURE
     1 LNH         1 TEMP              0 ****  ****    0 ROOT
