@<TRIPOS>MOLECULE
molecule
   17    16     1     0     0
SMALL
bcc


@<TRIPOS>ATOM
      1 C1           0.0000     0.0000     0.0000 c3         1 LNK      -0.092100
      2 C2           1.5290     0.0000     0.0000 c3         1 LNK      -0.084400
      3 C3           2.0410     0.0000     1.4410 c3         1 LNK      -0.081400
      4 C4           3.5700    -0.0000     1.4410 c3         1 LNK      -0.084400
      5 C5           4.0810     0.0000     2.8820 c3         1 LNK      -0.092100
      6 H11         -0.3610     0.8850     0.5110 hc         1 LNK       0.032367
      7 H12         -0.3610    -0.8850     0.5110 hc         1 LNK       0.032367
      8 H13         -0.3610     0.0000    -1.0210 hc         1 LNK       0.032367
      9 H21          1.8900     0.8840    -0.5110 hc         1 LNK       0.039700
     10 H22          1.8900    -0.8840    -0.5110 hc         1 LNK       0.039700
     11 H31          1.6800     0.8840     1.9520 hc         1 LNK       0.040700
     12 H32          1.6800    -0.8840     1.9520 hc         1 LNK       0.040700
     13 H41          3.9300    -0.8840     0.9300 hc         1 LNK       0.039700
     14 H42          3.9300     0.8840     0.9300 hc         1 LNK       0.039700
     15 H51          3.7210    -0.8850     3.3930 hc         1 LNK       0.032367
     16 H52          5.1640    -0.0000     2.8810 hc         1 LNK       0.032367
     17 H23          3.7210     0.8850     3.3930 hc         1 LNK       0.032367
@<TRIPOS>BOND
     1     1     2 1
     2     1     6 1
     3     1     7 1
     4     1     8 1
     5     2     3 1
     6     2     9 1
     7     2    10 1
     8     3     4 1
     9     3    11 1
    10     3    12 1
    11     4     5 1
    12     4    13 1
    13     4    14 1
    14     5    15 1
    15     5    16 1
    16     5    17 1
@<TRIPOS>SUBSTRUCTURE
     1 LNK         1 TEMP              0 ****  ****    0 ROOT
