@<TRIPOS>MOLECULE
LNK
   17    16     1     0     0
SMALL
bcc


@<TRIPOS>ATOM
      1 C1          0.0080    0.0000   -0.0100 c3        1 LNK     -0.092100
      2 C2          1.5150   -0.0000    0.0180 c3        1 LNK     -0.080400
      3 C3          2.0440   -0.0000    1.4360 c3        1 LNK     -0.079400
      4 C4          3.5580   -0.0000    1.4610 c3        1 LNK     -0.080400
      5 C5          4.0880    0.0000    2.8710 c3        1 LNK     -0.092100
      6 H11        -0.3960   -0.9050    0.5050 hc        1 LNK      0.032367
      7 H12        -0.3960    0.9050    0.5050 hc        1 LNK      0.032367
      8 H13        -0.3610    0.0000   -1.0640 hc        1 LNK      0.032367
      9 H21         1.9020   -0.9020   -0.5250 hc        1 LNK      0.037700
     10 H22         1.9020    0.9020   -0.5250 hc        1 LNK      0.037700
     11 H31         1.6600    0.9020    1.9800 hc        1 LNK      0.039700
     12 H32         1.6600   -0.9020    1.9800 hc        1 LNK      0.039700
     13 H41         3.9400    0.9020    0.9140 hc        1 LNK      0.037700
     14 H42         3.9400   -0.9020    0.9140 hc        1 LNK      0.037700
     15 H51         3.7380   -0.9050    3.4240 hc        1 LNK      0.032367
     16 H52         5.2050    0.0000    2.8660 hc        1 LNK      0.032367
     17 H23         3.7380    0.9050    3.4240 hc        1 LNK      0.032367
@<TRIPOS>BOND
     1    1    2 1   
     2    1    6 1   
     3    1    7 1   
     4    1    8 1   
     5    2    3 1   
     6    2    9 1   
     7    2   10 1   
     8    3    4 1   
     9    3   11 1   
    10    3   12 1   
    11    4    5 1   
    12    4   13 1   
    13    4   14 1   
    14    5   15 1   
    15    5   16 1   
    16    5   17 1   
@<TRIPOS>SUBSTRUCTURE
     1 LNK         1 TEMP              0 ****  ****    0 ROOT
