@<TRIPOS>MOLECULE
molecule
   49    48     1     0     0
SMALL
bcc


@<TRIPOS>ATOM
      1 O1           0.0000     0.0000     0.0000 o          1 LNL      -0.857300
      2 C1           1.3420     0.0000     0.0000 c          1 LNL       0.891600
      3 O2           1.9460     0.0000     1.0450 o          1 LNL      -0.857300
      4 C2           2.0950    -0.0020    -1.3060 c3         1 LNL      -0.183400
      5 C3           3.5990    -0.0020    -1.0280 c3         1 LNL      -0.063400
      6 C4           4.3640    -0.0040    -2.3520 c3         1 LNL      -0.088400
      7 C5           5.8670    -0.0040    -2.0730 c3         1 LNL      -0.079400
      8 C6           6.6320    -0.0060    -3.3970 c3         1 LNL      -0.092400
      9 C7           8.1360    -0.0060    -3.1190 c3         1 LNL      -0.075400
     10 C8           8.9010    -0.0080    -4.4430 c3         1 LNL      -0.087200
     11 C9          10.3830    -0.0080    -4.1690 c2         1 LNL      -0.181200
     12 C10         11.1500    -0.9160    -4.7190 c2         1 LNL      -0.272200
     13 C11         10.5740    -1.8860    -5.7170 c3         1 LNL       0.017000
     14 C12         11.3960    -1.8540    -6.9800 c2         1 LNL      -0.226200
     15 C13         11.8630    -2.9690    -7.4850 c2         1 LNL      -0.189200
     16 C14         11.4420    -4.2940    -6.9050 c3         1 LNL       0.281000
     17 C15         10.9220    -5.1810    -8.0070 c2         1 LNL      -0.188200
     18 C16         11.4020    -6.3920    -8.1530 c2         1 LNL      -0.235200
     19 C17         12.3440    -6.9590    -7.1250 c3         1 LNL       0.013800
     20 C18         11.8230    -8.3150    -6.6480 c3         1 LNL      -0.101100
     21 H21          1.8320    -0.8860    -1.8730 hc         1 LNL       0.026700
     22 H22          1.8330     0.8830    -1.8740 hc         1 LNL       0.026700
     23 H31          3.8610    -0.8860    -0.4580 hc         1 LNL       0.045200
     24 H32          3.8620     0.8830    -0.4610 hc         1 LNL       0.045200
     25 H41          4.1020     0.8790    -2.9210 hc         1 LNL       0.028700
     26 H42          4.1020    -0.8900    -2.9180 hc         1 LNL       0.028700
     27 H51          6.1290    -0.8880    -1.5040 hc         1 LNL       0.040700
     28 H52          6.1290     0.8810    -1.5060 hc         1 LNL       0.040700
     29 H61          6.3710     0.8780    -3.9660 hc         1 LNL       0.034700
     30 H62          6.3700    -0.8910    -3.9650 hc         1 LNL       0.034700
     31 H71          8.3980    -0.8910    -2.5510 hc         1 LNL       0.053700
     32 H72          8.3990     0.8780    -2.5520 hc         1 LNL       0.053700
     33 H81          8.6390    -0.8930    -5.0100 hc         1 LNL       0.046200
     34 H82          8.6390     0.8760    -5.0120 hc         1 LNL       0.046200
     35 H9           9.9630     0.4420    -5.0610 ha         1 LNL       0.166000
     36 H10         10.8400    -0.6960    -5.7340 ha         1 LNL       0.183000
     37 H111         9.5520    -1.6060    -5.9440 hc         1 LNL       0.067700
     38 H112        10.5900    -2.8850    -5.3000 hc         1 LNL       0.067700
     39 H12         10.3320    -2.0560    -7.0120 ha         1 LNL       0.087000
     40 H13         12.3620    -3.3820    -6.6160 ha         1 LNL       0.017000
     41 H141        10.6610    -4.1350    -6.1710 hc         1 LNL       0.057700
     42 H142        12.2920    -4.7680    -6.4300 hc         1 LNL       0.057700
     43 H15         10.5240    -5.2490    -7.0020 ha         1 LNL      -0.000000
     44 H16         12.4630    -6.1770    -8.1910 ha         1 LNL       0.114000
     45 H171        12.4100    -6.2810    -6.2830 hc         1 LNL       0.041700
     46 H172        13.3260    -7.0840    -7.5650 hc         1 LNL       0.041700
     47 H181        12.5270    -8.7470    -5.9480 hc         1 LNL       0.040700
     48 H182        11.7070    -8.9770    -7.4980 hc         1 LNL       0.040700
     49 H183        10.8640    -8.1830    -6.1610 hc         1 LNL       0.040700
@<TRIPOS>BOND
     1     1     2 1
     2     2     3 1
     3     2     4 1
     4     4     5 1
     5     4    21 1
     6     4    22 1
     7     5     6 1
     8     5    23 1
     9     5    24 1
    10     6     7 1
    11     6    25 1
    12     6    26 1
    13     7     8 1
    14     7    27 1
    15     7    28 1
    16     8     9 1
    17     8    29 1
    18     8    30 1
    19     9    10 1
    20     9    31 1
    21     9    32 1
    22    10    11 1
    23    10    33 1
    24    10    34 1
    25    11    12 2
    26    11    35 1
    27    12    13 1
    28    12    36 1
    29    13    14 1
    30    13    37 1
    31    13    38 1
    32    14    15 2
    33    14    39 1
    34    15    16 1
    35    15    40 1
    36    16    17 1
    37    16    41 1
    38    16    42 1
    39    17    18 2
    40    17    43 1
    41    18    19 1
    42    18    44 1
    43    19    20 1
    44    19    45 1
    45    19    46 1
    46    20    47 1
    47    20    48 1
    48    20    49 1
@<TRIPOS>SUBSTRUCTURE
     1 LNL         1 TEMP              0 ****  ****    0 ROOT
