@<TRIPOS>MOLECULE
LNL
   49    48     1     0     0
SMALL
bcc


@<TRIPOS>ATOM
      1 O1          0.2370   -0.0910    0.1520 o         1 LNL     -0.852800
      2 C1          1.4820   -0.1690    0.3640 c         1 LNL      0.907600
      3 O2          2.0410    0.2250    1.4290 o         1 LNL     -0.852800
      4 C2          2.3560   -0.8000   -0.7340 c3        1 LNL     -0.194400
      5 C3          3.6000    0.0170   -0.9830 c3        1 LNL     -0.065400
      6 C4          4.5590   -0.6850   -1.9210 c3        1 LNL     -0.078400
      7 C5          5.7940    0.1500   -2.1800 c3        1 LNL     -0.078400
      8 C6          6.7590   -0.5570   -3.1080 c3        1 LNL     -0.079400
      9 C7          7.9920    0.2810   -3.3670 c3        1 LNL     -0.077400
     10 C8          8.9560   -0.4320   -4.2930 c3        1 LNL     -0.053200
     11 C9         10.1740    0.3640   -4.5660 c2        1 LNL     -0.159200
     12 C10        11.2070   -0.0770   -5.2930 c2        1 LNL     -0.187200
     13 C11        11.2540   -1.4260   -5.9060 c3        1 LNL     -0.019000
     14 C12        12.4420   -1.6540   -6.7620 c2        1 LNL     -0.163200
     15 C13        12.7270   -2.8290   -7.3360 c2        1 LNL     -0.179200
     16 C14        11.8900   -4.0410   -7.1750 c3        1 LNL     -0.020000
     17 C15        12.3510   -5.1990   -7.9780 c2        1 LNL     -0.169200
     18 C16        11.7650   -6.4010   -7.9440 c2        1 LNL     -0.177200
     19 C17        10.5900   -6.7210   -7.1000 c3        1 LNL     -0.051200
     20 C18        10.1160   -8.1410   -7.2830 c3        1 LNL     -0.090100
     21 H21         2.6370   -1.8300   -0.3970 hc        1 LNL      0.018700
     22 H22         1.7580   -0.8970   -1.6750 hc        1 LNL      0.018700
     23 H31         4.1010    0.2190    0.0020 hc        1 LNL      0.044200
     24 H32         3.3130    1.0110   -1.4170 hc        1 LNL      0.044200
     25 H41         4.8600   -1.6720   -1.4800 hc        1 LNL      0.025700
     26 H42         4.0440   -0.9040   -2.8940 hc        1 LNL      0.025700
     27 H51         6.3040    0.3740   -1.2060 hc        1 LNL      0.037200
     28 H52         5.4940    1.1340   -2.6290 hc        1 LNL      0.037200
     29 H61         6.2470   -0.7830   -4.0800 hc        1 LNL      0.034200
     30 H62         7.0600   -1.5390   -2.6570 hc        1 LNL      0.034200
     31 H71         8.5030    0.5090   -2.3950 hc        1 LNL      0.040200
     32 H72         7.6910    1.2620   -3.8200 hc        1 LNL      0.040200
     33 H81         9.2470   -1.4210   -3.8410 hc        1 LNL      0.046200
     34 H82         8.4380   -0.6640   -5.2650 hc        1 LNL      0.046200
     35 H9         10.1960    1.3760   -4.1290 ha        1 LNL      0.123000
     36 H10        12.0850    0.5660   -5.4600 ha        1 LNL      0.117000
     37 H111       11.2280   -2.2040   -5.0890 hc        1 LNL      0.057200
     38 H112       10.3210   -1.5900   -6.5200 hc        1 LNL      0.057200
     39 H12        13.1050   -0.7870   -6.9180 ha        1 LNL      0.121000
     40 H13        13.6250   -2.9340   -7.9650 ha        1 LNL      0.119000
     41 H141       10.8240   -3.7990   -7.4550 hc        1 LNL      0.058700
     42 H142       11.8660   -4.3310   -6.0840 hc        1 LNL      0.058700
     43 H15        13.2240   -5.0250   -8.6290 ha        1 LNL      0.119000
     44 H16        12.1510   -7.2250   -8.5660 ha        1 LNL      0.119000
     45 H171        9.7520   -6.0110   -7.3440 hc        1 LNL      0.049200
     46 H172       10.8520   -6.5480   -6.0190 hc        1 LNL      0.049200
     47 H181        9.2310   -8.3380   -6.6300 hc        1 LNL      0.033367
     48 H182       10.9230   -8.8650   -7.0120 hc        1 LNL      0.033367
     49 H183        9.8210   -8.3250   -8.3440 hc        1 LNL      0.033367
@<TRIPOS>BOND
     1    1    2 1   
     2    2    3 1   
     3    2    4 1   
     4    4    5 1   
     5    4   21 1   
     6    4   22 1   
     7    5    6 1   
     8    5   23 1   
     9    5   24 1   
    10    6    7 1   
    11    6   25 1   
    12    6   26 1   
    13    7    8 1   
    14    7   27 1   
    15    7   28 1   
    16    8    9 1   
    17    8   29 1   
    18    8   30 1   
    19    9   10 1   
    20    9   31 1   
    21    9   32 1   
    22   10   11 1   
    23   10   33 1   
    24   10   34 1   
    25   11   12 2   
    26   11   35 1   
    27   12   13 1   
    28   12   36 1   
    29   13   14 1   
    30   13   37 1   
    31   13   38 1   
    32   14   15 2   
    33   14   39 1   
    34   15   16 1   
    35   15   40 1   
    36   16   17 1   
    37   16   41 1   
    38   16   42 1   
    39   17   18 2   
    40   17   43 1   
    41   18   19 1   
    42   18   44 1   
    43   19   20 1   
    44   19   45 1   
    45   19   46 1   
    46   20   47 1   
    47   20   48 1   
    48   20   49 1   
@<TRIPOS>SUBSTRUCTURE
     1 LNL         1 TEMP              0 ****  ****    0 ROOT
