@<TRIPOS>MOLECULE
molecule
   28    29     1     0     0
SMALL
bcc


@<TRIPOS>ATOM
      1 C1           0.0000     0.0000     0.0000 ca         1 LNN       0.090100
      2 C2           1.3860     0.0000     0.0000 ca         1 LNN      -0.195000
      3 C3           2.0780     0.0000     1.1960 ca         1 LNN      -0.094000
      4 O1           3.0810     1.6650     5.2700 o          1 LNN      -0.841800
      5 O2           2.0140     2.3380     3.4550 o          1 LNN      -0.841800
      6 C11         -4.2520    -0.9210     2.0070 ca         1 LNN      -0.140000
      7 C12         -4.9460    -0.0030     1.2400 ca         1 LNN      -0.145000
      8 C13         -4.2630     0.9160     0.4640 ca         1 LNN      -0.140000
      9 C14         -2.8830     0.9220     0.4520 ca         1 LNN      -0.110000
     10 C6           2.4120     1.4190     4.1320 c          1 LNN       0.892600
     11 C4           1.3940    -0.0010     2.3990 ca         1 LNN      -0.022300
     12 C7           0.0130    -0.0000     2.4130 ca         1 LNN      -0.086000
     13 C8          -0.6940     0.0000     1.2130 cp         1 LNN      -0.073000
     14 O           -0.6810     0.0050    -1.1760 oh         1 LNN      -0.520100
     15 C9          -2.1780    -0.0010     1.2230 cp         1 LNN      -0.003000
     16 C10         -2.8710    -0.9240     2.0020 ca         1 LNN      -0.110000
     17 H1           1.9280     0.0000    -0.9380 ha         1 LNN       0.115000
     18 H2           3.1610    -0.0000     1.1920 ha         1 LNN       0.131000
     19 H4          -4.7920    -1.6380     2.6120 ha         1 LNN       0.117000
     20 H5          -6.0290    -0.0040     1.2470 ha         1 LNN       0.113000
     21 H6          -4.8120     1.6330    -0.1340 ha         1 LNN       0.117000
     22 H7          -2.3490     1.6420    -0.1560 ha         1 LNN       0.139000
     23 H8           3.1020    -0.5120     3.5620 hc         1 LNN       0.039700
     24 H9           1.5770    -0.5120     4.4580 hc         1 LNN       0.039700
     25 H10         -0.5200    -0.0010     3.3560 ha         1 LNN       0.139000
     26 H11         -0.3320    -0.6610    -1.7440 ho         1 LNN       0.402000
     27 H12         -2.3280    -1.6440     2.6030 ha         1 LNN       0.139000
     28 C5           2.1570    -0.0010     3.6980 c3         1 LNN      -0.153100
@<TRIPOS>BOND
     1     7     6 ar
     2     7     8 ar
     3     6    16 ar
     4     8     9 ar
     5    16    15 ar
     6     9    15 ar
     7    15    13 1
     8    14     1 1
     9    13     1 ar
    10    13    12 ar
    11     1     2 ar
    12    12    11 ar
    13     2     3 ar
    14    11     3 ar
    15    11    28 1
    16    28    10 1
    17     5    10 1
    18    10     4 1
    19     2    17 1
    20     3    18 1
    21     6    19 1
    22     7    20 1
    23     8    21 1
    24     9    22 1
    25    28    23 1
    26    28    24 1
    27    12    25 1
    28    14    26 1
    29    16    27 1
@<TRIPOS>SUBSTRUCTURE
     1 LNN         1 TEMP              0 ****  ****    0 ROOT
