@<TRIPOS>MOLECULE
molecule
   25    24     1     0     0
SMALL
bcc


@<TRIPOS>ATOM
      1 N            0.0000     0.0000     0.0000 nz         1 LNO      -0.801600
      2 CA           1.4680     0.0000     0.0000 c3         1 LNO       0.031500
      3 C            1.9700     0.0000     1.4200 c          1 LNO       0.649100
      4 O            1.3140     0.5250     2.2940 o          1 LNO      -0.553100
      5 CB           1.9790     1.2480    -0.7210 c3         1 LNO      -0.102400
      6 CG           1.4700     1.2470    -2.1640 c3         1 LNO      -0.094700
      7 CD1          1.9800     2.4950    -2.8860 c3         1 LNO      -0.091600
      8 CD2          1.9790    -0.0020    -2.8840 c3         1 LNO      -0.091600
      9 N2           3.1460    -0.5840     1.7200 ns         1 LNO      -0.433400
     10 ON2          3.6180    -0.5840     3.0550 oh         1 LNO      -0.327100
     11 HN1         -0.3340    -0.7740    -0.5400 hn         1 LNO       0.466467
     12 HN2A        -0.3340    -0.0800     0.9400 hn         1 LNO       0.466467
     13 HA           1.8290    -0.8850    -0.5100 hx         1 LNO       0.117700
     14 HB1          1.6180     2.1330    -0.2110 hc         1 LNO       0.097200
     15 HB2          3.0620     1.2470    -0.7210 hc         1 LNO       0.097200
     16 HG           0.3860     1.2480    -2.1650 hc         1 LNO       0.026700
     17 HD11         3.0630     2.4830    -2.9050 hc         1 LNO       0.052033
     18 HD12         1.6380     3.3800    -2.3630 hc         1 LNO       0.052033
     19 HD13         1.6010     2.5060    -3.9000 hc         1 LNO       0.052033
     20 HD21         3.0350    -0.1310    -2.6780 hc         1 LNO       0.052033
     21 HD22         1.4340    -0.8690    -2.5320 hc         1 LNO       0.052033
     22 HD23         1.8300     0.1100    -3.9510 hc         1 LNO       0.052033
     23 HN2          3.6720    -1.0440     1.0040 hn         1 LNO       0.336500
     24 HO2          4.3660    -1.1540     3.1240 ho         1 LNO       0.427000
     25 HN3         -0.3340     0.8600    -0.3880 hn         1 LNO       0.466467
@<TRIPOS>BOND
     1     1     2 1
     2     1    11 1
     3     1    12 1
     4     2     3 1
     5     2     5 1
     6     2    13 1
     7     3     4 2
     8     3     9 1
     9     5     6 1
    10     5    14 1
    11     5    15 1
    12     6     7 1
    13     6     8 1
    14     6    16 1
    15     7    17 1
    16     7    18 1
    17     7    19 1
    18     8    20 1
    19     8    21 1
    20     8    22 1
    21     9    10 1
    22     9    23 1
    23    10    24 1
    24    25     1 1
@<TRIPOS>SUBSTRUCTURE
     1 LNO         1 TEMP              0 ****  ****    0 ROOT
