@<TRIPOS>MOLECULE
molecule
   88    92     1     0     0
SMALL
bcc


@<TRIPOS>ATOM
      1 CAA          0.0000     0.0000     0.0000 c3         1 LNP      -0.071400
      2 CAB          1.5240     0.0000     0.0000 c3         1 LNP      -0.019500
      3 CAC          2.0580     0.0000     1.3970 c2         1 LNP      -0.094400
      4 CAD          1.3390    -0.8220     2.4210 c3         1 LNP       0.021400
      5 CAE          0.4000    -1.8210     1.6980 c3         1 LNP      -0.050000
      6 CAF         -0.6230    -1.0860     0.8850 c3         1 LNP      -0.063400
      7 CAG          2.0790     1.1150    -0.8850 c3         1 LNP      -0.043000
      8 CAH          3.5550     1.3750    -0.6190 c3         1 LNP      -0.034700
      9 CAI          3.7710     1.6980     0.8660 c3         1 LNP      -0.044200
     10 CAJ          3.0720     0.7230     1.7620 c2         1 LNP      -0.169200
     11 CAK          1.2590     2.3880    -0.7020 c3         1 LNP      -0.071400
     12 CAL          1.7900     3.4920    -1.6160 c3         1 LNP      -0.105400
     13 CAM          3.2480     3.7890    -1.2720 c3         1 LNP       0.157100
     14 CAN          4.1190     2.5430    -1.4280 c3         1 LNP      -0.057000
     15 CAO          2.1780    -1.7920     3.2680 c3         1 LNP      -0.073400
     16 CAP          1.0610    -2.6860     3.8870 c3         1 LNP      -0.084400
     17 CAQ         -0.1230    -2.6480     2.8870 c3         1 LNP      -0.058700
     18 CAR          0.5550     0.0960     3.3450 c2         1 LNP      -0.075200
     19 CAS          1.1720    -2.8100     0.8200 c3         1 LNP      -0.106100
     20 CAT          1.8670     0.5990    -2.3190 c3         1 LNP      -0.095100
     21 CAV         -0.4620    -4.0630     2.4140 c3         1 LNP      -0.082700
     22 CAW          5.5190     2.9020    -0.8760 c3         1 LNP      -0.079600
     23 CAX          4.3250     2.2120    -2.9040 c3         1 LNP      -0.079600
     24 CAY         -1.6240    -4.0040     1.4200 c3         1 LNP      -0.094100
     25 CAZ         -0.8620    -4.9210     3.6160 c3         1 LNP      -0.080400
     26 CBA         -1.0790    -6.3660     3.1610 c3         1 LNP      -0.086400
     27 CBB         -1.4790    -7.2240     4.3630 c3         1 LNP      -0.075400
     28 CBC         -1.6970    -8.6680     3.9090 c3         1 LNP      -0.077700
     29 CBD         -0.3720    -9.2540     3.4170 c3         1 LNP      -0.089100
     30 CBE         -2.2170    -9.5000     5.0840 c3         1 LNP      -0.089100
     31 CBF          0.8840     0.1880     4.6100 cu         1 LNP      -0.221400
     32 CBG          0.5980     0.7210     5.9900 cx         1 LNP      -0.091700
     33 CBH          1.8180    -0.1690     5.7390 cx         1 LNP      -0.091700
     34 OBH          3.7370     4.8160    -2.1410 oh         1 LNP      -0.606800
     35 HAA         -0.3430     0.9660     0.3490 hc         1 LNP       0.042200
     36 HAAA        -0.3430    -0.1470    -1.0170 hc         1 LNP       0.042200
     37 HAB          1.8350    -0.9350    -0.4500 hc         1 LNP       0.060700
     38 HAF         -1.1410    -1.7960     0.2520 hc         1 LNP       0.042700
     39 HAFA        -1.3350    -0.6220     1.5560 hc         1 LNP       0.042700
     40 HAH          4.1140     0.4800    -0.8650 hc         1 LNP       0.057700
     41 HAI          3.3920     2.6930     1.0670 hc         1 LNP       0.049700
     42 HAIA         4.8330     1.6710     1.0790 hc         1 LNP       0.049700
     43 HAJ          3.4350     0.6150     2.7770 ha         1 LNP       0.122000
     44 HAK          1.3290     2.7130     0.3290 hc         1 LNP       0.047700
     45 HAKA         0.2240     2.1850    -0.9500 hc         1 LNP       0.047700
     46 HAL          1.7230     3.1680    -2.6480 hc         1 LNP       0.049700
     47 HALA         1.1990     4.3890    -1.4760 hc         1 LNP       0.049700
     48 HAM          3.3040     4.1320    -0.2460 h1         1 LNP       0.030700
     49 HAO          2.8420    -2.3770     2.6430 hc         1 LNP       0.053700
     50 HAOA         2.7220    -1.2610     4.0400 hc         1 LNP       0.053700
     51 HAP          1.4200    -3.7030     3.9990 hc         1 LNP       0.045700
     52 HAPA         0.7520    -2.2850     4.8440 hc         1 LNP       0.045700
     53 HAQ         -0.9850    -2.1700     3.3350 hc         1 LNP       0.058700
     54 HAR         -0.3320     0.6000     2.9790 ha         1 LNP       0.136000
     55 HAS          0.6780    -2.9040    -0.1390 hc         1 LNP       0.044367
     56 HASA         2.1820    -2.4500     0.6730 hc         1 LNP       0.044367
     57 HASB         1.2010    -3.7770     1.3070 hc         1 LNP       0.044367
     58 HAT          1.9050     1.4310    -3.0120 hc         1 LNP       0.037700
     59 HATA         0.9000     0.1150    -2.3890 hc         1 LNP       0.037700
     60 HATB         2.6450    -0.1130    -2.5660 hc         1 LNP       0.037700
     61 HAV          0.4040    -4.5000     1.9310 hc         1 LNP       0.069700
     62 HAW          6.0890     1.9940    -0.7190 hc         1 LNP       0.036867
     63 HAWA         6.0370     3.5340    -1.5870 hc         1 LNP       0.036867
     64 HAWB         5.4120     3.4280     0.0650 hc         1 LNP       0.036867
     65 HAX          5.1880     2.7500    -3.2780 hc         1 LNP       0.036867
     66 HAXA         3.4460     2.5030    -3.4650 hc         1 LNP       0.036867
     67 HAXB         4.4880     1.1460    -3.0150 hc         1 LNP       0.036867
     68 HAY         -2.0630    -3.0140     1.4360 hc         1 LNP       0.036033
     69 HAYA        -1.2590    -4.2210     0.4240 hc         1 LNP       0.036033
     70 HAYB        -2.3740    -4.7350     1.6970 hc         1 LNP       0.036033
     71 HAZ         -1.7790    -4.5360     4.0460 hc         1 LNP       0.042200
     72 HAZA        -0.0740    -4.8910     4.3590 hc         1 LNP       0.042200
     73 HBA         -0.1630    -6.7510     2.7310 hc         1 LNP       0.043200
     74 HBAA        -1.8670    -6.3960     2.4180 hc         1 LNP       0.043200
     75 HBB         -0.6920    -7.1930     5.1060 hc         1 LNP       0.041200
     76 HBBA        -2.3960    -6.8380     4.7930 hc         1 LNP       0.041200
     77 HBC         -2.4210    -8.6880     3.1030 hc         1 LNP       0.048700
     78 HBD          0.4430    -8.8450     4.0030 hc         1 LNP       0.033700
     79 HBDA        -0.3900   -10.3310     3.5270 hc         1 LNP       0.033700
     80 HBDB        -0.2290    -8.9990     2.3740 hc         1 LNP       0.033700
     81 HBE         -3.2240    -9.8370     4.8700 hc         1 LNP       0.033700
     82 HBEA        -1.5720   -10.3580     5.2320 hc         1 LNP       0.033700
     83 HBEB        -2.2220    -8.8930     5.9810 hc         1 LNP       0.033700
     84 HBG          0.8100     1.7730     6.1390 hc         1 LNP       0.077200
     85 HBGA        -0.2250     0.2490     6.5140 hc         1 LNP       0.077200
     86 HBH          2.7750     0.3390     5.7330 hc         1 LNP       0.077200
     87 HBHA         1.7400    -1.1850     6.1070 hc         1 LNP       0.077200
     88 HOBH         3.6290     5.6570    -1.7270 ho         1 LNP       0.398000
@<TRIPOS>BOND
     1     1     2 1
     2     1     6 1
     3     2     3 1
     4     2     7 1
     5     3     4 1
     6     3    10 2
     7     4     5 1
     8     4    15 1
     9     4    18 1
    10     5     6 1
    11     5    17 1
    12     5    19 1
    13     7     8 1
    14     7    11 1
    15     7    20 1
    16     8     9 1
    17     8    14 1
    18     9    10 1
    19    11    12 1
    20    12    13 1
    21    13    14 1
    22    13    34 1
    23    14    22 1
    24    14    23 1
    25    15    16 1
    26    16    17 1
    27    17    21 1
    28    18    31 2
    29    21    24 1
    30    21    25 1
    31    25    26 1
    32    26    27 1
    33    27    28 1
    34    28    29 1
    35    28    30 1
    36    31    32 1
    37    31    33 1
    38    32    33 1
    39     1    35 1
    40     1    36 1
    41     2    37 1
    42     6    38 1
    43     6    39 1
    44     8    40 1
    45     9    41 1
    46     9    42 1
    47    10    43 1
    48    11    44 1
    49    11    45 1
    50    12    46 1
    51    12    47 1
    52    13    48 1
    53    15    49 1
    54    15    50 1
    55    16    51 1
    56    16    52 1
    57    17    53 1
    58    18    54 1
    59    19    55 1
    60    19    56 1
    61    19    57 1
    62    20    58 1
    63    20    59 1
    64    20    60 1
    65    21    61 1
    66    22    62 1
    67    22    63 1
    68    22    64 1
    69    23    65 1
    70    23    66 1
    71    23    67 1
    72    24    68 1
    73    24    69 1
    74    24    70 1
    75    25    71 1
    76    25    72 1
    77    26    73 1
    78    26    74 1
    79    27    75 1
    80    27    76 1
    81    28    77 1
    82    29    78 1
    83    29    79 1
    84    29    80 1
    85    30    81 1
    86    30    82 1
    87    30    83 1
    88    32    84 1
    89    32    85 1
    90    33    86 1
    91    33    87 1
    92    34    88 1
@<TRIPOS>SUBSTRUCTURE
     1 LNP         1 TEMP              0 ****  ****    0 ROOT
