@<TRIPOS>MOLECULE
LNP
   88    92     1     0     0
SMALL
bcc


@<TRIPOS>ATOM
      1 CAA         0.0170   -0.1070    0.0670 c3        1 LNP     -0.074400
      2 CAB         1.5330   -0.0120   -0.0940 c3        1 LNP     -0.016500
      3 CAC         2.1930   -0.3110    1.2190 c2        1 LNP     -0.091400
      4 CAD         1.3940   -1.1510    2.1670 c3        1 LNP      0.028400
      5 CAE         0.5600   -2.2140    1.3770 c3        1 LNP     -0.036000
      6 CAF        -0.4420   -1.5010    0.4800 c3        1 LNP     -0.064400
      7 CAG         2.0020    1.3110   -0.7500 c3        1 LNP     -0.026000
      8 CAH         3.5460    1.4050   -0.7060 c3        1 LNP     -0.039700
      9 CAI         4.1310    1.1370    0.6810 c3        1 LNP     -0.043200
     10 CAJ         3.4000    0.1730    1.5240 c2        1 LNP     -0.171200
     11 CAK         1.3930    2.5120   -0.0340 c3        1 LNP     -0.065400
     12 CAL         1.9010    3.8390   -0.5490 c3        1 LNP     -0.109400
     13 CAM         3.4220    3.9270   -0.5230 c3        1 LNP      0.149100
     14 CAN         4.1140    2.7450   -1.2320 c3        1 LNP     -0.035000
     15 CAO         2.1560   -2.0360    3.1690 c3        1 LNP     -0.069400
     16 CAP         1.1650   -3.1440    3.5350 c3        1 LNP     -0.076400
     17 CAQ        -0.0140   -3.0620    2.5410 c3        1 LNP     -0.055700
     18 CAR         0.4960   -0.2370    2.9680 c2        1 LNP     -0.082200
     19 CAS         1.4700   -3.1100    0.5390 c3        1 LNP     -0.086100
     20 CAT         1.5300    1.2560   -2.2070 c3        1 LNP     -0.095100
     21 CAV        -0.5650   -4.4380    2.1790 c3        1 LNP     -0.056700
     22 CAW         5.6140    2.8290   -0.9370 c3        1 LNP     -0.085100
     23 CAX         3.9730    2.8780   -2.7440 c3        1 LNP     -0.085100
     24 CAY        -1.6900   -4.3310    1.1690 c3        1 LNP     -0.091100
     25 CAZ        -1.0680   -5.1490    3.4330 c3        1 LNP     -0.079400
     26 CBA        -1.1330   -6.6520    3.2490 c3        1 LNP     -0.079400
     27 CBB        -1.6340   -7.3300    4.5060 c3        1 LNP     -0.076400
     28 CBC        -1.7370   -8.8400    4.3480 c3        1 LNP     -0.067700
     29 CBD        -0.3720   -9.4950    4.3850 c3        1 LNP     -0.089600
     30 CBE        -2.6220   -9.4190    5.4340 c3        1 LNP     -0.089600
     31 CBF         0.9160    0.6200    3.8720 cu        1 LNP     -0.199400
     32 CBG         0.5660    1.6470    4.8600 cx        1 LNP     -0.090700
     33 CBH         2.0060    1.2480    4.6240 cx        1 LNP     -0.090700
     34 OBH         3.8620    5.1180   -1.1730 oh        1 LNP     -0.601800
     35 HAA        -0.5010    0.1640   -0.8890 hc        1 LNP      0.044200
     36 HAAA       -0.3150    0.6430    0.8330 hc        1 LNP      0.044200
     37 HAB         1.8490   -0.8230   -0.8180 hc        1 LNP      0.057700
     38 HAF        -0.6150   -2.1080   -0.4480 hc        1 LNP      0.040700
     39 HAFA       -1.4310   -1.4210    1.0020 hc        1 LNP      0.040700
     40 HAH         3.9350    0.5950   -1.3880 hc        1 LNP      0.048700
     41 HAI         4.1800    2.0980    1.2670 hc        1 LNP      0.048200
     42 HAIA        5.1880    0.7740    0.5510 hc        1 LNP      0.048200
     43 HAJ         3.8930   -0.0880    2.4750 ha        1 LNP      0.124000
     44 HAK         1.6230    2.4220    1.0620 hc        1 LNP      0.047700
     45 HAKA        0.2780    2.4870   -0.1530 hc        1 LNP      0.047700
     46 HAL         1.4820    4.6620    0.0900 hc        1 LNP      0.043700
     47 HALA        1.5400    4.0240   -1.5940 hc        1 LNP      0.043700
     48 HAM         3.7660    3.9630    0.5510 h1        1 LNP      0.030700
     49 HAO         3.0730   -2.4590    2.6900 hc        1 LNP      0.048200
     50 HAOA        2.4730   -1.4550    4.0690 hc        1 LNP      0.048200
     51 HAP         1.6620   -4.1440    3.4780 hc        1 LNP      0.042200
     52 HAPA        0.7930   -3.0060    4.5800 hc        1 LNP      0.042200
     53 HAQ        -0.8510   -2.4820    3.0190 hc        1 LNP      0.048700
     54 HAR        -0.5860   -0.3280    2.7690 ha        1 LNP      0.131000
     55 HAS         2.2110   -2.5190   -0.0480 hc        1 LNP      0.037367
     56 HASA        2.0480   -3.8100    1.1930 hc        1 LNP      0.037367
     57 HASB        0.8600   -3.7210   -0.1690 hc        1 LNP      0.037367
     58 HAT         0.6600    0.5670   -2.3380 hc        1 LNP      0.036367
     59 HATA        1.2030    2.2600   -2.5660 hc        1 LNP      0.036367
     60 HATB        2.3430    0.8820   -2.8740 hc        1 LNP      0.036367
     61 HAV         0.2640   -5.0550    1.7300 hc        1 LNP      0.050700
     62 HAW         6.1330    1.9250   -1.3360 hc        1 LNP      0.037867
     63 HAWA        6.0380    3.7400   -1.4270 hc        1 LNP      0.037867
     64 HAWB        5.8200    2.9130    0.1560 hc        1 LNP      0.037867
     65 HAX         4.6320    3.7050   -3.1100 hc        1 LNP      0.037867
     66 HAXA        4.2760    1.9300   -3.2490 hc        1 LNP      0.037867
     67 HAXB        2.9310    3.1400   -3.0380 hc        1 LNP      0.037867
     68 HAY        -1.2990   -3.9940    0.1790 hc        1 LNP      0.034033
     69 HAYA       -2.4600   -3.5990    1.5120 hc        1 LNP      0.034033
     70 HAYB       -2.1840   -5.3230    1.0290 hc        1 LNP      0.034033
     71 HAZ        -0.3930   -4.9240    4.3000 hc        1 LNP      0.041200
     72 HAZA       -2.0850   -4.7570    3.6990 hc        1 LNP      0.041200
     73 HBA        -0.1140   -7.0410    2.9880 hc        1 LNP      0.039700
     74 HBAA       -1.8120   -6.9040    2.3920 hc        1 LNP      0.039700
     75 HBB        -0.9500   -7.0910    5.3630 hc        1 LNP      0.040200
     76 HBBA       -2.6460   -6.9180    4.7660 hc        1 LNP      0.040200
     77 HBC        -2.2110   -9.0620    3.3490 hc        1 LNP      0.045700
     78 HBD        -0.4700  -10.6000    4.2570 hc        1 LNP      0.033200
     79 HBDA        0.1320   -9.2970    5.3610 hc        1 LNP      0.033200
     80 HBDB        0.2750   -9.1010    3.5660 hc        1 LNP      0.033200
     81 HBE        -3.6520   -8.9920    5.3670 hc        1 LNP      0.033200
     82 HBEA       -2.6900  -10.5280    5.3280 hc        1 LNP      0.033200
     83 HBEB       -2.2060   -9.1840    6.4430 hc        1 LNP      0.033200
     84 HBG         0.2170    2.6360    4.5110 hc        1 LNP      0.072450
     85 HBGA        0.0710    1.3450    5.8010 hc        1 LNP      0.072450
     86 HBH         2.5370    0.6620    5.3980 hc        1 LNP      0.072450
     87 HBHA        2.6840    1.9510    4.1050 hc        1 LNP      0.072450
     88 HOBH        3.3840    5.8470   -0.7620 ho        1 LNP      0.396000
@<TRIPOS>BOND
     1    1    2 1   
     2    1    6 1   
     3    1   35 1   
     4    1   36 1   
     5    2    3 1   
     6    2    7 1   
     7    2   37 1   
     8    3    4 1   
     9    3   10 2   
    10    4    5 1   
    11    4   15 1   
    12    4   18 1   
    13    5    6 1   
    14    5   17 1   
    15    5   19 1   
    16    6   38 1   
    17    6   39 1   
    18    7    8 1   
    19    7   11 1   
    20    7   20 1   
    21    8    9 1   
    22    8   14 1   
    23    8   40 1   
    24    9   10 1   
    25    9   41 1   
    26    9   42 1   
    27   10   43 1   
    28   11   12 1   
    29   11   44 1   
    30   11   45 1   
    31   12   13 1   
    32   12   46 1   
    33   12   47 1   
    34   13   14 1   
    35   13   34 1   
    36   13   48 1   
    37   14   22 1   
    38   14   23 1   
    39   15   16 1   
    40   15   49 1   
    41   15   50 1   
    42   16   17 1   
    43   16   51 1   
    44   16   52 1   
    45   17   21 1   
    46   17   53 1   
    47   18   31 2   
    48   18   54 1   
    49   19   55 1   
    50   19   56 1   
    51   19   57 1   
    52   20   58 1   
    53   20   59 1   
    54   20   60 1   
    55   21   24 1   
    56   21   25 1   
    57   21   61 1   
    58   22   62 1   
    59   22   63 1   
    60   22   64 1   
    61   23   65 1   
    62   23   66 1   
    63   23   67 1   
    64   24   68 1   
    65   24   69 1   
    66   24   70 1   
    67   25   26 1   
    68   25   71 1   
    69   25   72 1   
    70   26   27 1   
    71   26   73 1   
    72   26   74 1   
    73   27   28 1   
    74   27   75 1   
    75   27   76 1   
    76   28   29 1   
    77   28   30 1   
    78   28   77 1   
    79   29   78 1   
    80   29   79 1   
    81   29   80 1   
    82   30   81 1   
    83   30   82 1   
    84   30   83 1   
    85   31   32 1   
    86   31   33 1   
    87   32   33 1   
    88   32   84 1   
    89   32   85 1   
    90   33   86 1   
    91   33   87 1   
    92   34   88 1   
@<TRIPOS>SUBSTRUCTURE
     1 LNP         1 TEMP              0 ****  ****    0 ROOT
