@<TRIPOS>MOLECULE
LNQ
   45    45     1     0     0
SMALL
bcc


@<TRIPOS>ATOM
      1 C1          0.3490   -2.5900   -0.0410 c3        1 LNQ     -0.093100
      2 C2          1.6850   -2.2630    0.5720 c3        1 LNQ     -0.084400
      3 C3          1.6870   -0.8510    1.1310 c3        1 LNQ      0.131400
      4 O4          2.9850   -0.6310    1.6830 os        1 LNQ     -0.428600
      5 C5          3.1110    0.6650    2.2620 c3        1 LNQ      0.127400
      6 C6          4.5750    0.8170    2.6640 c3        1 LNQ      0.127400
      7 O7          5.1350    1.7920    1.7860 os        1 LNQ     -0.428600
      8 C8          6.5480    1.9040    1.9350 c3        1 LNQ      0.127400
      9 C9          6.9830    3.0820    1.0700 c3        1 LNQ      0.126400
     10 O10         7.2950    4.1490    1.9650 os        1 LNQ     -0.427600
     11 C11         7.5670    5.3670    1.2760 c3        1 LNQ      0.132400
     12 C12         7.9190    6.3900    2.3430 c3        1 LNQ     -0.091400
     13 C13         8.1620    7.7410    1.6760 c3        1 LNQ      0.186800
     14 N14         8.5330    8.7650    2.6320 nh        1 LNQ     -0.693000
     15 C15         9.0820    9.9210    2.1600 cc        1 LNQ     -0.022200
     16 C16         9.7730   10.2710    0.8690 c         1 LNQ      0.485300
     17 C17        10.0780   11.6430    1.4870 c         1 LNQ      0.483300
     18 C18         9.3700   11.1690    2.7230 cd        1 LNQ     -0.058200
     19 O19         9.9900    9.6970   -0.1810 o         1 LNQ     -0.477100
     20 O20        10.6380   12.6660    1.1460 o         1 LNQ     -0.476100
     21 N21         9.0270   11.8090    3.8800 nh        1 LNQ     -0.771600
     22 H11        -0.4650   -2.5180    0.7210 hc        1 LNQ      0.035033
     23 H12         0.3580   -3.6290   -0.4490 hc        1 LNQ      0.035033
     24 H13         0.1120   -1.8860   -0.8750 hc        1 LNQ      0.035033
     25 H21         1.9240   -2.9860    1.3950 hc        1 LNQ      0.053700
     26 H22         2.4980   -2.3550   -0.1960 hc        1 LNQ      0.053700
     27 H31         1.4890   -0.0980    0.3230 h1        1 LNQ      0.025700
     28 H32         0.9120   -0.7360    1.9350 h1        1 LNQ      0.025700
     29 H51         2.4480    0.7320    3.1650 h1        1 LNQ      0.042200
     30 H52         2.8170    1.4540    1.5200 h1        1 LNQ      0.042200
     31 H61         5.1200   -0.1590    2.5600 h1        1 LNQ      0.043700
     32 H62         4.6570    1.1850    3.7200 h1        1 LNQ      0.043700
     33 H81         6.8120    2.0820    3.0120 h1        1 LNQ      0.044200
     34 H82         7.0340    0.9580    1.5790 h1        1 LNQ      0.044200
     35 H91         7.9000    2.8180    0.4800 h1        1 LNQ      0.044700
     36 H92         6.1600    3.3890    0.3710 h1        1 LNQ      0.044700
     37 H111        8.4220    5.2170    0.5640 h1        1 LNQ      0.031200
     38 H112        6.6590    5.6830    0.6960 h1        1 LNQ      0.031200
     39 H121        7.0810    6.4550    3.0840 hc        1 LNQ      0.063200
     40 H122        8.8320    6.0510    2.8970 hc        1 LNQ      0.063200
     41 H131        7.2280    8.0390    1.1120 h1        1 LNQ      0.053700
     42 H132        8.9960    7.6460    0.9220 h1        1 LNQ      0.053700
     43 H141        7.8800    8.8860    3.3800 hn        1 LNQ      0.408800
     44 H211        8.9830   11.2190    4.6840 hn        1 LNQ      0.401300
     45 H212        9.5330   12.6550    4.0370 hn        1 LNQ      0.401300
@<TRIPOS>BOND
     1    1    2 1
     2    1   22 1
     3    1   23 1
     4    1   24 1
     5    2    3 1
     6    2   25 1
     7    2   26 1
     8    3    4 1
     9    3   27 1
    10    3   28 1
    11    4    5 1
    12    5    6 1
    13    5   29 1
    14    5   30 1
    15    6    7 1
    16    6   31 1
    17    6   32 1
    18    7    8 1
    19    8    9 1
    20    8   33 1
    21    8   34 1
    22    9   10 1
    23    9   35 1
    24    9   36 1
    25   10   11 1
    26   11   12 1
    27   11   37 1
    28   11   38 1
    29   12   13 1
    30   12   39 1
    31   12   40 1
    32   13   14 1
    33   13   41 1
    34   13   42 1
    35   14   15 1
    36   14   43 1
    37   15   16 1
    38   15   18 2
    39   16   17 1
    40   16   19 2
    41   17   18 1
    42   17   20 2
    43   18   21 1
    44   21   44 1
    45   21   45 1
@<TRIPOS>SUBSTRUCTURE
     1 LNQ         1 TEMP              0 ****  ****    0 ROOT
