@<TRIPOS>MOLECULE
LNV
   46    46     1     0     0
SMALL
bcc


@<TRIPOS>ATOM
      1 CAA          0.0000     0.0000     0.0000 ce         1 LNV       0.161900
      2 CAB          1.3250     0.0000     0.0000 c2         1 LNV      -0.448200
      3 CAC          2.1280     0.0000     1.2720 c3         1 LNV       0.186700
      4 CAD          1.2370    -0.4350     2.4390 c3         1 LNV      -0.061300
      5 CAE         -0.0800     0.3480     2.3560 c3         1 LNV       0.137100
      6 OAF         -0.7390    -0.0080     1.1370 os         1 LNV      -0.233900
      7 CAG         -0.7030     0.0150    -1.2940 c          1 LNV       0.958800
      8 OAH         -2.0500     0.0140    -1.3300 o          1 LNV      -0.840800
      9 OAI         -0.0680     0.0260    -2.3310 o          1 LNV      -0.840800
     10 CAJ         -0.9710    -0.0130     3.5470 c3         1 LNV      -0.001900
     11 CAK         -2.3300     0.6750     3.3930 c3         1 LNV       0.264100
     12 CAL         -3.1740     0.4220     4.6450 c3         1 LNV      -0.042600
     13 OAM         -4.4770     0.9780     4.4610 oh         1 LNV      -0.557800
     14 OAW         -1.1560    -1.4290     3.5920 os         1 LNV      -0.322600
     15 CAX         -1.0640    -1.9860     4.9040 c3         1 LNV       0.226700
     16 OAY         -2.1370     2.0800     3.2250 oh         1 LNV      -0.601800
     17 NAZ          3.2510    -0.9330     1.1410 nu         1 LNV      -0.458200
     18 CBA          4.4230    -0.5190     0.5550 c2         1 LNV       0.251100
     19 NBB          4.5370     0.7020     0.1170 n2         1 LNV      -0.684100
     20 NBC          5.4760    -1.3950     0.4320 nz         1 LNV       0.199400
     21 CBE          3.4750    -0.7210     5.5320 c3         1 LNV      -0.068100
     22 OBF          3.0010    -2.0710     3.6550 o          1 LNV      -0.693100
     23 NBG          1.9060    -0.1420     3.7090 ns         1 LNV      -0.167900
     24 HAB          1.8480     0.0010    -0.9490 ha         1 LNV       0.161000
     25 HAC          2.5030     0.9990     1.4600 h1         1 LNV       0.024700
     26 HAD          1.1430    -1.4650     2.1150 h1         1 LNV       0.095700
     27 HAE          0.3870     1.3240     2.4010 h1         1 LNV       0.030700
     28 HAJ         -0.3320     0.8560     3.6480 h1         1 LNV       0.138700
     29 HAK         -2.6050     0.1410     2.4920 h1         1 LNV       0.052700
     30 HAL         -3.4430    -0.0480     3.7060 h1         1 LNV       0.065700
     31 HALA        -3.0140    -0.4290     5.2960 h1         1 LNV       0.065700
     32 HOAM        -4.9750     0.8820     5.2560 ho         1 LNV       0.385000
     33 HAX         -0.3190    -2.7730     4.9110 h1         1 LNV      -0.006300
     34 HAXA        -2.0250    -2.3960     5.1910 h1         1 LNV      -0.006300
     35 HAXB        -0.7770    -1.2120     5.6060 h1         1 LNV      -0.006300
     36 HOAY        -2.7960     2.4210     2.6430 ho         1 LNV       0.418000
     37 HNAZ         3.1300    -1.8960     1.3870 hn         1 LNV       0.327800
     38 HNBB         3.7720     1.3410     0.2060 hn         1 LNV       0.399400
     39 HNBC         6.0680    -1.1020    -0.3200 hn         1 LNV       0.215800
     40 HNBA         6.0020    -1.4070     1.2840 hn         1 LNV       0.215800
     41 HBE          2.7580    -0.3050     6.2300 hc         1 LNV       0.026700
     42 HBEA         3.8900    -1.6340     5.9410 hc         1 LNV       0.026700
     43 HBEB         4.2710    -0.0060     5.3630 hc         1 LNV       0.026700
     44 HNBG         1.7360     0.7270     4.1750 hn         1 LNV       0.186500
     45 CBD          2.7860    -1.0230     4.2260 c          1 LNV       0.578100
     46 HBC3         5.1270    -2.3140     0.2440 hn         1 LNV       0.215800
@<TRIPOS>BOND
     1     1     2 2   
     2     1     6 1   
     3     1     7 1   
     4     2     3 1   
     5     2    24 1   
     6     3     4 1   
     7     3    17 1   
     8     3    25 1   
     9     4     5 1   
    10     4    23 1   
    11     4    26 1   
    12     5     6 1   
    13     5    10 1   
    14     5    27 1   
    15     7     8 1   
    16     7     9 1   
    17    10    11 1   
    18    10    14 1   
    19    10    28 1   
    20    11    12 1   
    21    11    16 1   
    22    11    29 1   
    23    12    13 1   
    24    12    30 1   
    25    12    31 1   
    26    13    32 1   
    27    14    15 1   
    28    15    33 1   
    29    15    34 1   
    30    15    35 1   
    31    16    36 1   
    32    17    18 1   
    33    17    37 1   
    34    18    19 2   
    35    18    20 1   
    36    19    38 1   
    37    20    39 1   
    38    20    40 1   
    39    20    46 1   
    40    21    41 1   
    41    21    42 1   
    42    21    43 1   
    43    21    45 1   
    44    22    45 2   
    45    23    44 1   
    46    23    45 1   
@<TRIPOS>SUBSTRUCTURE
     1 LNV         1 TEMP              0 ****  ****    0 ROOT
