@<TRIPOS>MOLECULE
molecule
   46    46     1     0     0
SMALL
bcc


@<TRIPOS>ATOM
      1 CAA          0.0000     0.0000     0.0000 ce         1 LNV       0.138900
      2 CAB          1.3250     0.0000     0.0000 c2         1 LNV      -0.398200
      3 CAC          2.1280     0.0000     1.2720 c3         1 LNV       0.404700
      4 CAD          1.2370    -0.4350     2.4390 c3         1 LNV      -0.113300
      5 CAE         -0.0800     0.3480     2.3560 c3         1 LNV       0.140100
      6 OAF         -0.7390    -0.0080     1.1370 os         1 LNV      -0.254900
      7 CAG         -0.7030     0.0150    -1.2940 c          1 LNV       0.879800
      8 OAH         -2.0500     0.0140    -1.3300 o          1 LNV      -0.788300
      9 OAI         -0.0680     0.0260    -2.3310 o          1 LNV      -0.788300
     10 CAJ         -0.9710    -0.0130     3.5470 c3         1 LNV       0.040100
     11 CAK         -2.3300     0.6750     3.3930 c3         1 LNV       0.202100
     12 CAL         -3.1740     0.4220     4.6450 c3         1 LNV      -0.080600
     13 OAM         -4.4770     0.9780     4.4610 oh         1 LNV      -0.587800
     14 OAW         -1.1560    -1.4290     3.5920 os         1 LNV      -0.322600
     15 CAX         -1.0640    -1.9860     4.9040 c3         1 LNV       0.112700
     16 OAY         -2.1370     2.0800     3.2250 oh         1 LNV      -0.614800
     17 NAZ          3.2510    -0.9330     1.1410 nu         1 LNV      -0.817200
     18 CBA          4.4230    -0.5190     0.5550 c2         1 LNV       0.688100
     19 NBB          4.5370     0.7020     0.1170 n2         1 LNV      -0.812100
     20 NBC          5.4760    -1.3950     0.4320 nz         1 LNV      -0.806600
     21 CBE          3.4750    -0.7210     5.5320 c3         1 LNV      -0.178100
     22 OBF          3.0280    -2.0550     3.6370 o          1 LNV      -0.631100
     23 NBG          1.9060    -0.1420     3.7090 ns         1 LNV      -0.579900
     24 HAB          1.8480     0.0000    -0.9490 ha         1 LNV       0.182000
     25 HAC          2.5040     0.9990     1.4600 h1         1 LNV       0.030700
     26 HAD          1.7340     0.5160     2.2930 h1         1 LNV       0.125700
     27 HAE          0.3870     1.3240     2.4010 h1         1 LNV       0.026700
     28 HAJ         -0.3320     0.8560     3.6490 h1         1 LNV       0.144700
     29 HAK         -2.6050     0.1410     2.4920 h1         1 LNV       0.089700
     30 HAL         -3.4430    -0.0470     3.7060 h1         1 LNV       0.096700
     31 HALA        -3.0140    -0.4290     5.2950 h1         1 LNV       0.096700
     32 HOAM        -4.9650     0.9070     5.2640 ho         1 LNV       0.393000
     33 HAX         -0.7910    -1.2090     5.6080 h1         1 LNV       0.033367
     34 HAXA        -2.0210    -2.4080     5.1860 h1         1 LNV       0.033367
     35 HAXB        -0.3090    -2.7640     4.9140 h1         1 LNV       0.033367
     36 HOAY        -2.7780     2.4150     2.6200 ho         1 LNV       0.431000
     37 HNAZ         3.1580    -1.8770     1.4620 hn         1 LNV       0.487800
     38 HNBB         5.3910     1.0030    -0.3090 hn         1 LNV       0.419400
     39 HNBC         6.1220    -1.2480     1.1830 hn         1 LNV       0.459800
     40 HNBA         5.1350    -2.3350     0.4660 hn         1 LNV       0.459800
     41 HBE          4.1020    -1.5590     5.8120 hc         1 LNV       0.063033
     42 HBEA         2.7310    -0.5530     6.3020 hc         1 LNV       0.063033
     43 HBEB         4.0860     0.1660     5.4210 hc         1 LNV       0.063033
     44 HNBG         1.7220     0.7190     4.1840 hn         1 LNV       0.311500
     45 CBD          2.7860    -1.0230     4.2260 c          1 LNV       0.664100
     46 HBC3         5.9400    -1.2400    -0.4410 hn         1 LNV       0.459800
@<TRIPOS>BOND
     1     1     2 2
     2     1     6 1
     3     1     7 1
     4     2     3 1
     5     3     4 1
     6     3    17 1
     7     4     5 1
     8     4    23 1
     9     5     6 1
    10     5    10 1
    11     7     8 1
    12     7     9 1
    13    10    11 1
    14    10    14 1
    15    11    12 1
    16    11    16 1
    17    12    13 1
    18    14    15 1
    19    17    18 1
    20    18    19 2
    21    18    20 1
    22    45    21 1
    23    45    22 2
    24    45    23 1
    25     2    24 1
    26     3    25 1
    27     4    26 1
    28     5    27 1
    29    10    28 1
    30    11    29 1
    31    12    30 1
    32    12    31 1
    33    13    32 1
    34    15    33 1
    35    15    34 1
    36    15    35 1
    37    16    36 1
    38    17    37 1
    39    19    38 1
    40    20    39 1
    41    20    40 1
    42    21    41 1
    43    21    42 1
    44    21    43 1
    45    23    44 1
    46    46    20 1
@<TRIPOS>SUBSTRUCTURE
     1 LNV         1 TEMP              0 ****  ****    0 ROOT
