@<TRIPOS>MOLECULE
molecule
   32    33     1     0     0
SMALL
bcc


@<TRIPOS>ATOM
      1 C1           0.0000     0.0000     0.0000 c3         1 LNW      -0.146100
      2 C2           1.5070     0.0000     0.0000 ca         1 LNW      -0.023300
      3 C3           2.1970     0.0000     1.1990 ca         1 LNW      -0.089000
      4 O1          -1.8210     1.6680    -0.0010 o          1 LNW      -0.858550
      5 O2           4.1840    -2.3400     2.2720 o          1 LNW      -0.858550
      6 O3           5.2250    -1.6670     4.1010 o          1 LNW      -0.858550
      7 C11          4.3440    -0.0290    -4.8780 ca         1 LNW      -0.138000
      8 C12          5.7270    -0.0300    -4.8700 ca         1 LNW      -0.172000
      9 C13          6.4180    -0.0250    -3.6720 ca         1 LNW      -0.138000
     10 C14          5.7280    -0.0180    -2.4750 ca         1 LNW      -0.133000
     11 C15          2.1960    -0.0070    -1.1960 ca         1 LNW      -0.122000
     12 C6           4.5730    -1.4220     2.9530 c          1 LNW       0.893600
     13 C4           3.5800    -0.0010     1.2060 ca         1 LNW      -0.023300
     14 C7           4.2800    -0.0030     0.0160 ca         1 LNW      -0.122000
     15 C8           3.5890    -0.0090    -1.1940 cp         1 LNW      -0.083000
     16 C           -0.5010     1.4220    -0.0010 c          1 LNW       0.893600
     17 O            0.2850     2.3390    -0.0020 o          1 LNW      -0.858550
     18 C9           4.3360    -0.0170    -2.4770 cp         1 LNW       0.027000
     19 C10          3.6460    -0.0220    -3.6870 ca         1 LNW      -0.133000
     20 H1          -0.3610    -0.5100     0.8850 hc         1 LNW       0.034700
     21 H2          -0.3610    -0.5110    -0.8840 hc         1 LNW       0.034700
     22 H3           1.6530     0.0010     2.1350 ha         1 LNW       0.130000
     23 H6           3.8080    -0.0320    -5.8190 ha         1 LNW       0.107000
     24 H7           6.2720    -0.0350    -5.8070 ha         1 LNW       0.099000
     25 H8           7.5010    -0.0260    -3.6720 ha         1 LNW       0.107000
     26 H9           6.2700    -0.0140    -1.5370 ha         1 LNW       0.142000
     27 H10          1.6540    -0.0120    -2.1340 ha         1 LNW       0.111000
     28 H11          5.2730     0.5090     2.3920 hc         1 LNW       0.034700
     29 H12          3.7360     0.5110     3.2660 hc         1 LNW       0.034700
     30 H13          5.3630    -0.0040     0.0230 ha         1 LNW       0.111000
     31 H14          2.5630    -0.0210    -3.6950 ha         1 LNW       0.142000
     32 C5           4.3260    -0.0010     2.5160 c3         1 LNW      -0.146100
@<TRIPOS>BOND
     1     8     7 ar
     2     8     9 ar
     3     7    19 ar
     4     9    10 ar
     5    19    18 ar
     6    10    18 ar
     7    18    15 1
     8    15    11 ar
     9    15    14 ar
    10    11     2 ar
    11    14    13 ar
    12     2     1 1
    13     2     3 ar
    14    13     3 ar
    15    13    32 1
    16     1    16 1
    17    16    17 1
    18    16     4 1
    19    32    12 1
    20     5    12 1
    21    12     6 1
    22     1    20 1
    23     1    21 1
    24     3    22 1
    25     7    23 1
    26     8    24 1
    27     9    25 1
    28    10    26 1
    29    11    27 1
    30    32    28 1
    31    32    29 1
    32    14    30 1
    33    19    31 1
@<TRIPOS>SUBSTRUCTURE
     1 LNW         1 TEMP              0 ****  ****    0 ROOT
