@<TRIPOS>MOLECULE
molecule
   29    30     1     0     0
SMALL
bcc


@<TRIPOS>ATOM
      1 C1           0.0000     0.0000     0.0000 c3         1 LNX      -0.147100
      2 C2           1.5080     0.0000     0.0000 ca         1 LNX      -0.022300
      3 C3           2.1990     0.0000     1.1980 ca         1 LNX      -0.090000
      4 O1          -1.8210     1.6650     0.0010 o          1 LNX      -0.845800
      5 O2           4.2040     2.3400     2.2600 o          1 LNX      -0.845800
      6 O3           5.2380     1.6670     4.0940 o          1 LNX      -0.845800
      7 C11          4.6760    -0.0360    -4.7440 cc         1 LNX      -0.139000
      8 C12          5.9610    -0.0460    -4.3830 cd         1 LNX      -0.138100
      9 C13          2.1950    -0.0050    -1.1970 ca         1 LNX      -0.120000
     10 C           -0.5020     1.4200     0.0010 c          1 LNX       0.889600
     11 O            0.2830     2.3390     0.0000 o          1 LNX      -0.845800
     12 C8           3.5910    -0.0110    -1.1950 ca         1 LNX      -0.060000
     13 C7           4.2820    -0.0110     0.0180 ca         1 LNX      -0.120000
     14 C4           3.5820    -0.0000     1.2060 ca         1 LNX      -0.022300
     15 C5           4.3260     0.0010     2.5180 c3         1 LNX      -0.147100
     16 C6           4.5850     1.4220     2.9470 c          1 LNX       0.889600
     17 C9           4.3350    -0.0230    -2.4730 cd         1 LNX       0.119900
     18 C10          3.7750    -0.0240    -3.6990 cc         1 LNX      -0.212000
     19 S            6.0870    -0.0380    -2.6280 ss         1 LNX      -0.182800
     20 H1          -0.3610    -0.5110     0.8840 hc         1 LNX       0.028200
     21 H2          -0.3610    -0.5100    -0.8850 hc         1 LNX       0.028200
     22 H3           1.6550     0.0090     2.1350 ha         1 LNX       0.132000
     23 H6           4.3630    -0.0390    -5.7810 ha         1 LNX       0.119000
     24 H7           6.8010    -0.0560    -5.0680 h4         1 LNX       0.142000
     25 H8           1.6530    -0.0050    -2.1350 ha         1 LNX       0.114000
     26 H9           5.3650    -0.0130     0.0260 ha         1 LNX       0.114000
     27 H10          3.7310    -0.5010     3.2710 hc         1 LNX       0.028200
     28 H11          5.2690    -0.5180     2.3980 hc         1 LNX       0.028200
     29 H12          2.7020    -0.0160    -3.8520 ha         1 LNX       0.154000
@<TRIPOS>BOND
     1     7     8 2
     2     7    18 1
     3     8    19 1
     4    18    17 2
     5    19    17 1
     6    17    12 1
     7    12    13 ar
     8    12     9 ar
     9    13    14 ar
    10     9     2 ar
    11    14    15 1
    12    14     3 ar
    13     2     3 ar
    14     2     1 1
    15    15    16 1
    16    16     5 1
    17    16     6 1
    18     1    10 1
    19    11    10 1
    20    10     4 1
    21     1    20 1
    22     1    21 1
    23     3    22 1
    24     7    23 1
    25     8    24 1
    26     9    25 1
    27    13    26 1
    28    15    27 1
    29    15    28 1
    30    18    29 1
@<TRIPOS>SUBSTRUCTURE
     1 LNX         1 TEMP              0 ****  ****    0 ROOT
