@<TRIPOS>MOLECULE
molecule
   35    36     1     0     0
SMALL
bcc


@<TRIPOS>ATOM
      1 C1           0.0000     0.0000     0.0000 c3         1 LNY      -0.443100
      2 C2           1.5070     0.0000     0.0000 ca         1 LNY      -0.009800
      3 C3           2.1970     0.0000     1.1990 ca         1 LNY      -0.139000
      4 O1           0.2820     2.3390     0.0020 o          1 LNY      -0.829800
      5 O2           5.2350     1.6660     4.0970 o          1 LNY      -0.829800
      6 O3           4.2030     2.3400     2.2630 o          1 LNY      -0.829800
      7 C11          4.6610    -0.0350    -4.7490 cc         1 LNY      -0.121000
      8 C12          5.9720    -0.0440    -4.3750 cc         1 LNY      -0.025100
      9 C13          7.0860    -0.0560    -5.2740 cg         1 LNY       0.025000
     10 C14          8.0100    -0.0800    -6.0000 c1         1 LNY      -0.196100
     11 C15          9.0780    -0.1870    -7.0500 c3         1 LNY       0.261500
     12 C16          2.1950    -0.0050    -1.1960 ca         1 LNY      -0.140500
     13 O           -1.8220     1.6660     0.0010 o          1 LNY      -0.829800
     14 C           -0.5030     1.4210     0.0010 c          1 LNY       0.876100
     15 C8           3.5910    -0.0110    -1.1930 ca         1 LNY      -0.037000
     16 C7           4.2810    -0.0110     0.0210 ca         1 LNY      -0.140500
     17 C4           3.5810    -0.0000     1.2090 ca         1 LNY      -0.009800
     18 C5           4.3240    -0.0010     2.5190 c3         1 LNY      -0.443100
     19 C6           4.5830     1.4210     2.9500 c          1 LNY       0.876100
     20 C9           4.3340    -0.0220    -2.4700 cd         1 LNY       0.134900
     21 C10          3.7680    -0.0240    -3.7070 cc         1 LNY      -0.212000
     22 S            6.0860    -0.0370    -2.6210 ss         1 LNY      -0.112800
     23 O4           8.4220    -0.4350    -8.4250 oh         1 LNY      -0.643800
     24 H1          -0.6710     0.5260    -0.6680 hc         1 LNY       0.171950
     25 H2          -0.3270     0.1030     1.0280 hc         1 LNY       0.171950
     26 H3           1.5860     0.4050     1.9970 ha         1 LNY       0.139000
     27 H5           4.3420    -0.7220    -5.5230 ha         1 LNY       0.139000
     28 H6           9.7490    -1.0310    -7.1530 h1         1 LNY       0.025700
     29 H7           9.7700     0.6430    -7.1280 h1         1 LNY       0.025700
     30 H8           1.3590     0.2470    -1.8360 ha         1 LNY       0.135500
     31 H10          5.3490    -0.1770     0.0910 ha         1 LNY       0.135500
     32 H11          3.5180    -0.2800     3.1870 hc         1 LNY       0.171950
     33 H12          4.6110     1.0410     2.6020 hc         1 LNY       0.171950
     34 H13          2.7440    -0.1260    -4.0460 ha         1 LNY       0.154000
     35 H14          9.0970    -0.5240    -9.0760 ho         1 LNY       0.380000
@<TRIPOS>BOND
     1    23    11 1
     2    11    10 1
     3    10     9 3
     4     9     8 1
     5     7     8 2
     6     7    21 1
     7     8    22 1
     8    21    20 2
     9    22    20 1
    10    20    15 1
    11    15    16 ar
    12    15    12 ar
    13    16    17 ar
    14    12     2 ar
    15    17    18 1
    16    17     3 ar
    17     2     3 ar
    18     2     1 1
    19    18    19 1
    20     6    19 1
    21    19     5 1
    22     1    14 1
    23     4    14 1
    24    14    13 1
    25     1    24 1
    26     1    25 1
    27     3    26 1
    28     7    27 1
    29    11    28 1
    30    11    29 1
    31    12    30 1
    32    16    31 1
    33    18    32 1
    34    18    33 1
    35    21    34 1
    36    23    35 1
@<TRIPOS>SUBSTRUCTURE
     1 LNY         1 TEMP              0 ****  ****    0 ROOT
