@<TRIPOS>MOLECULE
molecule
   42    43     1     0     0
SMALL
bcc


@<TRIPOS>ATOM
      1 C1           0.0000     0.0000     0.0000 ca         1 LNZ      -0.022000
      2 C2           1.3950     0.0000     0.0000 ca         1 LNZ      -0.202600
      3 C3           2.0940     0.0000     1.2100 ca         1 LNZ       0.043700
      4 C11         -2.1670     0.0070     1.2180 cc         1 LNZ       0.027900
      5 C15         -4.6360    -0.3360     1.5320 cc         1 LNZ       0.067900
      6 C16         -4.3050     0.6680     0.6730 cd         1 LNZ      -0.156000
      7 C17         -2.9540     0.8560     0.5030 cd         1 LNZ      -0.157000
      8 C18         -5.9720    -0.7250     1.8710 cg         1 LNZ      -0.093000
      9 C21          3.3090    -1.6350    -3.8100 c3         1 LNZ      -0.251300
     10 C23         -7.0630    -1.0620     2.1420 c1         1 LNZ      -0.105100
     11 C24         -8.6170    -0.9650     2.2220 c3         1 LNZ       0.215500
     12 C4           1.4080     0.0010     2.4060 ca         1 LNZ      -0.245000
     13 C5           0.0210     0.0020     2.4180 ca         1 LNZ       0.188100
     14 C6          -0.6900     0.0080     1.2080 ca         1 LNZ      -0.072000
     15 C7           2.1330    -0.0020    -1.2790 c          1 LNZ       0.701700
     16 C8           3.6000    -0.0010     1.2080 c3         1 LNZ      -0.073800
     17 O9          -0.6480     0.0030     3.5980 os         1 LNZ      -0.292900
     18 C10          0.1410     0.0030     4.7900 c3         1 LNZ       0.106700
     19 O12          3.3440     0.1130    -1.2820 o          1 LNZ      -0.567100
     20 N13          1.4650    -0.1320    -2.4430 ns         1 LNZ      -0.578300
     21 S14         -3.1730    -1.0830     2.1610 ss         1 LNZ      -0.069800
     22 S19          2.2930    -0.1330    -3.8770 s6         1 LNZ       1.273600
     23 O20          3.1120     1.0260    -3.8100 o          1 LNZ      -0.598300
     24 O22          1.2800    -0.2590    -4.8650 o          1 LNZ      -0.598300
     25 O25         -9.0540    -2.2460     2.0120 oh         1 LNZ      -0.590800
     26 H1          -0.6720    -0.0680    -0.8470 ha         1 LNZ       0.155000
     27 H2          -5.0320     1.3540     0.2570 ha         1 LNZ       0.153000
     28 H3          -2.8920     1.4430    -0.4050 ha         1 LNZ       0.162000
     29 H4           2.5960    -2.3010    -3.3400 h1         1 LNZ       0.094700
     30 H5           3.6080    -2.2530    -4.6480 h1         1 LNZ       0.094700
     31 H6           4.0890    -1.5280    -3.0670 h1         1 LNZ       0.094700
     32 H7          -9.0600    -0.0290     1.9040 h1         1 LNZ       0.055700
     33 H8          -8.6990    -1.1410     3.2870 h1         1 LNZ       0.055700
     34 H9           2.0330    -0.0500     3.2890 ha         1 LNZ       0.147000
     35 H10          3.9310    -0.4090     2.1550 hc         1 LNZ       0.060367
     36 H11          4.1950    -0.3520     0.3740 hc         1 LNZ       0.060367
     37 H12          3.9110     1.0360     1.2530 hc         1 LNZ       0.060367
     38 H13         -0.6240    -0.0470     5.5550 h1         1 LNZ       0.048700
     39 H14          0.4830     1.0100     4.9930 h1         1 LNZ       0.048700
     40 H15          1.1030    -0.4810     4.9060 h1         1 LNZ       0.048700
     41 H16          0.9520    -0.9660    -2.6510 hn         1 LNZ       0.298500
     42 H17         -9.9900    -2.2790     1.9010 ho         1 LNZ       0.407000
@<TRIPOS>BOND
     1    25    11 1
     2    11    10 1
     3    10     8 3
     4     8     5 1
     5     5     6 2
     6     5    21 1
     7     6     7 1
     8     7     4 2
     9    21     4 1
    10     4    14 1
    11    14     1 ar
    12    14    13 ar
    13    17    13 1
    14    17    18 1
    15     1     2 ar
    16    13    12 ar
    17     2    15 1
    18     2     3 ar
    19    12     3 ar
    20    23    22 2
    21    20    15 1
    22    20    22 1
    23    15    19 2
    24    24    22 2
    25     3    16 1
    26    22     9 1
    27     1    26 1
    28     6    27 1
    29     7    28 1
    30     9    29 1
    31     9    30 1
    32     9    31 1
    33    11    32 1
    34    11    33 1
    35    12    34 1
    36    16    35 1
    37    16    36 1
    38    16    37 1
    39    18    38 1
    40    18    39 1
    41    18    40 1
    42    20    41 1
    43    25    42 1
@<TRIPOS>SUBSTRUCTURE
     1 LNZ         1 TEMP              0 ****  ****    0 ROOT
