@<TRIPOS>MOLECULE
LNZ
   42    43     1     0     0
SMALL
bcc


@<TRIPOS>ATOM
      1 C1           0.0000     0.0000     0.0000 ca         1 LNZ       0.004000
      2 C2           1.3950     0.0000     0.0000 ca         1 LNZ      -0.222600
      3 C3           2.0940     0.0000     1.2100 ca         1 LNZ       0.054700
      4 C11         -2.1670     0.0070     1.2180 cc         1 LNZ       0.096900
      5 C15         -4.6360    -0.3360     1.5320 cc         1 LNZ       0.160900
      6 C16         -4.3050     0.6680     0.6730 cd         1 LNZ      -0.144000
      7 C17         -2.9540     0.8560     0.5030 cd         1 LNZ      -0.133000
      8 C18         -5.9720    -0.7250     1.8710 cg         1 LNZ      -0.097000
      9 C21          3.3090    -1.6350    -3.8100 c3         1 LNZ      -0.002300
     10 C23         -7.0630    -1.0620     2.1420 c1         1 LNZ      -0.120100
     11 C24         -8.6170    -0.9650     2.2220 c3         1 LNZ       0.333500
     12 C4           1.4080     0.0010     2.4060 ca         1 LNZ      -0.241000
     13 C5           0.0210     0.0020     2.4180 ca         1 LNZ       0.207100
     14 C6          -0.6900     0.0080     1.2080 ca         1 LNZ      -0.081000
     15 C7           2.1330    -0.0020    -1.2790 c          1 LNZ       0.691700
     16 C8           3.6000    -0.0010     1.2080 c3         1 LNZ       0.015200
     17 O9          -0.6480     0.0030     3.5980 os         1 LNZ      -0.270900
     18 C10          0.1410     0.0030     4.7900 c3         1 LNZ       0.223700
     19 O12          3.3440     0.1130    -1.2820 o          1 LNZ      -0.603100
     20 N13          1.4650    -0.1320    -2.4430 ns         1 LNZ      -0.269300
     21 S14         -3.1730    -1.0830     2.1610 ss         1 LNZ      -0.223800
     22 S19          2.2930    -0.1330    -3.8770 s6         1 LNZ       0.938600
     23 O20          3.1120     1.0260    -3.8100 o          1 LNZ      -0.565800
     24 O22          1.2800    -0.2590    -4.8650 o          1 LNZ      -0.565800
     25 O25         -9.0540    -2.2460     2.0120 oh         1 LNZ      -0.575800
     26 H1          -0.6720    -0.0680    -0.8470 ha         1 LNZ       0.122000
     27 H2          -5.0320     1.3540     0.2570 ha         1 LNZ       0.126000
     28 H3          -2.8920     1.4430    -0.4050 ha         1 LNZ       0.136000
     29 H4           2.5960    -2.3010    -3.3400 h1         1 LNZ       0.058367
     30 H5           3.6080    -2.2530    -4.6480 h1         1 LNZ       0.058367
     31 H6           4.0890    -1.5280    -3.0670 h1         1 LNZ       0.058367
     32 H7          -9.0600    -0.0290     1.9040 h1         1 LNZ       0.007700
     33 H8          -8.6990    -1.1410     3.2870 h1         1 LNZ       0.007700
     34 H9           2.0330    -0.0500     3.2890 ha         1 LNZ       0.133000
     35 H10          3.9310    -0.4090     2.1550 hc         1 LNZ       0.027367
     36 H11          4.1950    -0.3520     0.3740 hc         1 LNZ       0.027367
     37 H12          3.9110     1.0360     1.2530 hc         1 LNZ       0.027367
     38 H13         -0.6240    -0.0470     5.5550 h1         1 LNZ       0.003033
     39 H14          0.4830     1.0100     4.9930 h1         1 LNZ       0.003033
     40 H15          1.1030    -0.4810     4.9060 h1         1 LNZ       0.003033
     41 H16          0.9520    -0.9660    -2.6510 hn         1 LNZ       0.201500
     42 H17         -9.9900    -2.2790     1.9010 ho         1 LNZ       0.389000
@<TRIPOS>BOND
     1     1     2 ar  
     2     1    14 ar  
     3     1    26 1   
     4     2     3 ar  
     5     2    15 1   
     6     3    12 ar  
     7     3    16 1   
     8     4     7 2   
     9     4    14 1   
    10     4    21 1   
    11     5     6 2   
    12     5     8 1   
    13     5    21 1   
    14     6     7 1   
    15     6    27 1   
    16     7    28 1   
    17     8    10 3   
    18     9    22 1   
    19     9    29 1   
    20     9    30 1   
    21     9    31 1   
    22    10    11 1   
    23    11    25 1   
    24    11    32 1   
    25    11    33 1   
    26    12    13 ar  
    27    12    34 1   
    28    13    14 ar  
    29    13    17 1   
    30    15    19 2   
    31    15    20 1   
    32    16    35 1   
    33    16    36 1   
    34    16    37 1   
    35    17    18 1   
    36    18    38 1   
    37    18    39 1   
    38    18    40 1   
    39    20    22 1   
    40    20    41 1   
    41    22    23 2   
    42    22    24 2   
    43    25    42 1   
@<TRIPOS>SUBSTRUCTURE
     1 LNZ         1 TEMP              0 ****  ****    0 ROOT
