@<TRIPOS>MOLECULE
molecule
   24    24     1     0     0
SMALL
bcc


@<TRIPOS>ATOM
      1 C1           0.0000     0.0000     0.0000 c          1 LO1       0.830600
      2 O1           1.3450     0.0000     0.0000 o          1 LO1      -0.778800
      3 OXT         -0.6050     0.0000     1.0510 o          1 LO1      -0.778800
      4 C2          -0.7490     0.0010    -1.2910 c          1 LO1       0.556100
      5 O2          -0.1430     0.0020    -2.3430 o          1 LO1      -0.597100
      6 C1'         -2.7950    -0.1120    -2.4940 ca         1 LO1       0.148600
      7 C2'         -4.0130     0.5360    -2.6560 ca         1 LO1      -0.159000
      8 C3'         -4.7020     0.4190    -3.8460 ca         1 LO1      -0.081500
      9 C4'         -4.1820    -0.3400    -4.8770 ca         1 LO1      -0.269300
     10 C5'         -2.9730    -0.9920    -4.7160 ca         1 LO1      -0.081500
     11 C6'         -2.2770    -0.8770    -3.5310 ca         1 LO1      -0.159000
     12 C           -4.9380    -0.4650    -6.1740 c3         1 LO1       0.168100
     13 N1          -4.5240     0.6090    -7.0870 nz         1 LO1      -0.812600
     14 N7          -2.0960     0.0020    -1.2910 ns         1 LO1      -0.467100
     15 H2'         -4.4210     1.1320    -1.8490 ha         1 LO1       0.174000
     16 H3'         -5.6500     0.9270    -3.9740 ha         1 LO1       0.120000
     17 H5'         -2.5680    -1.5880    -5.5260 ha         1 LO1       0.120000
     18 H6'         -1.3280    -1.3860    -3.4070 ha         1 LO1       0.174000
     19 HC1         -4.7230    -1.4260    -6.6260 hx         1 LO1       0.098700
     20 HC2         -6.0010    -0.3850    -5.9820 hx         1 LO1       0.098700
     21 H1N1        -5.0200     0.5210    -7.9520 hn         1 LO1       0.446800
     22 H1N2        -4.7290     1.4960    -6.6730 hn         1 LO1       0.446800
     23 H7          -2.5950     0.0790    -0.4270 hn         1 LO1       0.355500
     24 H13         -3.5370     0.5490    -7.2470 hn         1 LO1       0.446800
@<TRIPOS>BOND
     1     1     2 1
     2     1     3 1
     3     1     4 1
     4     4     5 2
     5     4    14 1
     6     6     7 ar
     7     6    11 ar
     8     6    14 1
     9     7     8 ar
    10     7    15 1
    11     8     9 ar
    12     8    16 1
    13     9    10 ar
    14     9    12 1
    15    10    11 ar
    16    10    17 1
    17    11    18 1
    18    12    13 1
    19    12    19 1
    20    12    20 1
    21    13    21 1
    22    13    22 1
    23    14    23 1
    24    24    13 1
@<TRIPOS>SUBSTRUCTURE
     1 LO1         1 TEMP              0 ****  ****    0 ROOT
