@<TRIPOS>MOLECULE
molecule
   57    58     1     0     0
SMALL
bcc


@<TRIPOS>ATOM
      1 C1           0.0000     0.0000     0.0000 c3         1 LO2      -0.090100
      2 C2           1.5300     0.0000     0.0000 c3         1 LO2      -0.084400
      3 C3           2.0400     0.0000     1.4430 c3         1 LO2      -0.109400
      4 C4           3.5700    -0.0000     1.4430 c3         1 LO2       0.231800
      5 N5           4.0580    -0.0010     2.8240 nh         1 LO2      -0.720000
      6 C6           4.3020    -1.2700     3.5140 c3         1 LO2       0.282100
      7 C7           5.7260    -1.7050     3.2780 ca         1 LO2      -0.076300
      8 C8           6.0310    -2.4970     2.1880 ca         1 LO2      -0.144000
      9 C9           7.3380    -2.8990     1.9660 ca         1 LO2       0.040400
     10 Cl10         7.7180    -3.8950     0.5950 cl         1 LO2      -0.087400
     11 C11          8.3400    -2.5060     2.8370 ca         1 LO2       0.091100
     12 O12          9.6240    -2.8990     2.6220 os         1 LO2      -0.331900
     13 C13         10.4390    -2.0440     1.8170 c3         1 LO2       0.135700
     14 C14          8.0310    -1.7080     3.9350 ca         1 LO2       0.136100
     15 O15          9.0120    -1.3200     4.7930 os         1 LO2      -0.309900
     16 C16          8.6210    -0.5010     5.8970 c3         1 LO2       0.123700
     17 C17          6.7230    -1.3050     4.1470 ca         1 LO2      -0.202000
     18 C18          4.2900     1.2090     3.4830 ca         1 LO2       0.234600
     19 C19          4.7530     1.2100     4.7930 ca         1 LO2      -0.218000
     20 C20          4.9830     2.4080     5.4410 ca         1 LO2      -0.039500
     21 C21          4.7530     3.6040     4.7880 ca         1 LO2      -0.187300
     22 C22          4.2910     3.6060     3.4840 ca         1 LO2      -0.039500
     23 C23          4.0650     2.4130     2.8280 ca         1 LO2      -0.218000
     24 C24          5.0040     4.9090     5.4990 c3         1 LO2       0.133100
     25 O25          4.6230     5.9950     4.6510 oh         1 LO2      -0.552800
     26 C26          4.1790     4.9550     6.7870 c3         1 LO2       0.593900
     27 F27          4.3130     6.2150     7.3810 f          1 LO2      -0.210967
     28 F28          2.8330     4.7220     6.4880 f          1 LO2      -0.210967
     29 F29          4.6380     3.9720     7.6690 f          1 LO2      -0.210967
     30 C30          6.4900     5.0260     5.8400 c3         1 LO2       0.593900
     31 F31          7.2440     4.9850     4.6630 f          1 LO2      -0.210967
     32 F32          6.7230     6.2380     6.5000 f          1 LO2      -0.210967
     33 F33          6.8620     3.9640     6.6710 f          1 LO2      -0.210967
     34 H1          -0.3610     0.0700    -1.0190 hc         1 LO2       0.035700
     35 H1A         -0.3610    -0.9170     0.4490 hc         1 LO2       0.035700
     36 H1B         -0.3610     0.8470     0.5700 hc         1 LO2       0.035700
     37 H2           1.8910     0.8850    -0.5110 hc         1 LO2       0.040700
     38 H2A          1.8910    -0.8850    -0.5110 hc         1 LO2       0.040700
     39 H3           1.6790    -0.8850     1.9530 hc         1 LO2       0.050700
     40 H3A          1.6790     0.8850     1.9530 hc         1 LO2       0.050700
     41 H4           3.9310    -0.8840     0.9320 h1         1 LO2       0.054700
     42 H4A          3.9310     0.8850     0.9320 h1         1 LO2       0.054700
     43 H6           4.1350    -1.1410     4.5770 h1         1 LO2       0.061700
     44 H6A          3.6250    -2.0250     3.1310 h1         1 LO2       0.061700
     45 H8           5.2440    -2.8270     1.5210 ha         1 LO2       0.144000
     46 H13         10.9040    -2.6250     1.0300 h1         1 LO2       0.038033
     47 H13A        11.2060    -1.5910     2.4330 h1         1 LO2       0.038033
     48 H13B         9.8230    -1.2680     1.3770 h1         1 LO2       0.038033
     49 H16          8.2470     0.4470     5.5290 h1         1 LO2       0.045033
     50 H16A         9.4770    -0.3270     6.5380 h1         1 LO2       0.045033
     51 H16B         7.8440    -1.0020     6.4610 h1         1 LO2       0.045033
     52 H17          6.4790    -0.6830     5.0010 ha         1 LO2       0.147000
     53 H19          4.9340     0.2730     5.3050 ha         1 LO2       0.140000
     54 H20          5.3440     2.4100     6.4630 ha         1 LO2       0.153500
     55 H22          4.1140     4.5460     2.9750 ha         1 LO2       0.153500
     56 H23          3.7040     2.4160     1.8060 ha         1 LO2       0.140000
     57 HO25         4.7560     6.8100     5.1050 ho         1 LO2       0.428000
@<TRIPOS>BOND
     1     1     2 1
     2     1    34 1
     3     1    35 1
     4     1    36 1
     5     3     2 1
     6     2    37 1
     7     2    38 1
     8     4     3 1
     9     3    39 1
    10     3    40 1
    11     4     5 1
    12     4    41 1
    13     4    42 1
    14    18     5 1
    15     5     6 1
    16     7     6 1
    17     6    43 1
    18     6    44 1
    19     8     7 ar
    20     7    17 ar
    21     9     8 ar
    22     8    45 1
    23    10     9 1
    24     9    11 ar
    25    12    11 1
    26    11    14 ar
    27    12    13 1
    28    13    46 1
    29    13    47 1
    30    13    48 1
    31    14    17 ar
    32    14    15 1
    33    15    16 1
    34    16    49 1
    35    16    50 1
    36    16    51 1
    37    17    52 1
    38    23    18 ar
    39    18    19 ar
    40    20    19 ar
    41    19    53 1
    42    21    20 ar
    43    20    54 1
    44    24    21 1
    45    22    21 ar
    46    22    23 ar
    47    22    55 1
    48    23    56 1
    49    30    24 1
    50    26    24 1
    51    24    25 1
    52    25    57 1
    53    27    26 1
    54    28    26 1
    55    26    29 1
    56    32    30 1
    57    33    30 1
    58    30    31 1
@<TRIPOS>SUBSTRUCTURE
     1 LO2         1 TEMP              0 ****  ****    0 ROOT
