@<TRIPOS>MOLECULE
LOA
   71    74     1     0     0
SMALL
bcc


@<TRIPOS>ATOM
      1 C1          0.0540   -0.1240    0.1440 c3        1 LOA     -0.070400
      2 C2          1.5630   -0.1580    0.0830 c3        1 LOA     -0.099400
      3 C3          2.1390   -0.0700    1.4880 c3        1 LOA      0.151100
      4 O3          3.5760    0.0660    1.4130 os        1 LOA     -0.439900
      5 C4          1.6500    1.1830    2.2020 c3        1 LOA     -0.078400
      6 C5          0.1290    1.2320    2.2400 c3        1 LOA     -0.048700
      7 C6         -0.3250    2.4890    2.9680 c3        1 LOA     -0.071400
      8 C7         -0.0890    3.7460    2.1610 c3        1 LOA     -0.074400
      9 C8         -0.7370    3.6520    0.7900 c3        1 LOA     -0.047700
     10 C9         -0.2450    2.4030    0.0380 c3        1 LOA     -0.046700
     11 C10        -0.5160    1.1190    0.8420 c3        1 LOA     -0.036000
     12 C11        -0.8150    2.3520   -1.3760 c3        1 LOA     -0.072400
     13 C12        -0.6000    3.6300   -2.1720 c3        1 LOA     -0.065400
     14 C13        -1.1240    4.8440   -1.4220 c3        1 LOA     -0.047000
     15 C14        -0.3960    4.8630   -0.0530 c3        1 LOA     -0.067700
     16 C15        -0.6750    6.2550    0.4940 c3        1 LOA     -0.073400
     17 C16        -0.7330    7.1460   -0.7480 c3        1 LOA     -0.080400
     18 C17        -0.7140    6.2270   -1.9880 c3        1 LOA     -0.047700
     19 C18        -2.6350    4.7720   -1.2830 c3        1 LOA     -0.080100
     20 C19        -2.0140    0.8710    1.0080 c3        1 LOA     -0.087100
     21 C20        -1.5500    6.7960   -3.1290 c3        1 LOA     -0.061700
     22 C21        -1.5500    5.8760   -4.3340 c3        1 LOA     -0.086100
     23 C22        -1.0200    8.1710   -3.5340 c3        1 LOA     -0.068400
     24 C23        -2.0090    8.9670   -4.3500 c3        1 LOA     -0.195400
     25 C24        -1.5820   10.4440   -4.4570 c         1 LOA      0.907600
     26 C25         5.7830   -0.7880    1.2010 c3        1 LOA     -0.151100
     27 C26         4.3220   -1.0680    1.2960 c         1 LOA      0.634100
     28 OT1        -1.1760   11.0330   -3.4140 o         1 LOA     -0.852300
     29 OT2        -1.6800   11.0020   -5.5880 o         1 LOA     -0.852300
     30 O25         3.7590   -2.1660    1.2810 o         1 LOA     -0.555000
     31 H1         -0.3620   -0.1960   -0.8930 hc        1 LOA      0.042700
     32 H2         -0.3030   -1.0310    0.7040 hc        1 LOA      0.042700
     33 H3          1.9520    0.6900   -0.5380 hc        1 LOA      0.055700
     34 H4          1.9050   -1.1140   -0.3930 hc        1 LOA      0.055700
     35 H5          1.8860   -0.9950    2.0750 h1        1 LOA      0.067700
     36 H6          2.0490    1.1900    3.2490 hc        1 LOA      0.054700
     37 H7          2.0610    2.0860    1.6810 hc        1 LOA      0.054700
     38 H8         -0.2220    0.3410    2.8380 hc        1 LOA      0.038700
     39 H9          0.2210    2.5660    3.9460 hc        1 LOA      0.036200
     40 H10        -1.4180    2.3970    3.2040 hc        1 LOA      0.036200
     41 H11         1.0120    3.9270    2.0470 hc        1 LOA      0.042200
     42 H12        -0.5140    4.6290    2.7060 hc        1 LOA      0.042200
     43 H13        -1.8500    3.5960    0.9300 hc        1 LOA      0.053700
     44 H14         0.8750    2.4980   -0.0620 hc        1 LOA      0.047700
     45 H15        -1.9130    2.1270   -1.3310 hc        1 LOA      0.034200
     46 H16        -0.3240    1.5120   -1.9370 hc        1 LOA      0.034200
     47 H17         0.4940    3.7650   -2.3790 hc        1 LOA      0.042200
     48 H18        -1.1170    3.5310   -3.1610 hc        1 LOA      0.042200
     49 H19         0.7140    4.8150   -0.2670 hc        1 LOA      0.042700
     50 H20         0.1280    6.5810    1.1980 hc        1 LOA      0.032700
     51 H21        -1.6450    6.2780    1.0500 hc        1 LOA      0.032700
     52 H22         0.1400    7.8430   -0.7760 hc        1 LOA      0.056200
     53 H23        -1.6620    7.7690   -0.7380 hc        1 LOA      0.056200
     54 H24         0.3460    6.1410   -2.3560 hc        1 LOA      0.041700
     55 H25        -2.9570    3.8520   -0.7390 hc        1 LOA      0.033033
     56 H26        -3.0130    5.6630   -0.7250 hc        1 LOA      0.033033
     57 H27        -3.1120    4.7580   -2.2930 hc        1 LOA      0.033033
     58 H28        -2.5300    1.7660    1.4250 hc        1 LOA      0.034367
     59 H29        -2.1870    0.0120    1.7020 hc        1 LOA      0.034367
     60 H30        -2.4760    0.6230    0.0230 hc        1 LOA      0.034367
     61 H31        -2.6100    6.9210   -2.7710 hc        1 LOA      0.043700
     62 H32        -2.2040    4.9880   -4.1650 hc        1 LOA      0.025700
     63 H33        -1.9340    6.4230   -5.2300 hc        1 LOA      0.025700
     64 H34        -0.5160    5.5180   -4.5570 hc        1 LOA      0.025700
     65 H35        -0.0700    8.0420   -4.1150 hc        1 LOA      0.047700
     66 H36        -0.7700    8.7770   -2.6210 hc        1 LOA      0.047700
     67 H37        -3.0180    8.9420   -3.8650 hc        1 LOA      0.019700
     68 H38        -2.1120    8.5420   -5.3790 hc        1 LOA      0.019700
     69 H39         6.0000    0.2830    1.4300 hc        1 LOA      0.073367
     70 H40         6.3280   -1.4450    1.9210 hc        1 LOA      0.073367
     71 H41         6.1260   -1.0180    0.1620 hc        1 LOA      0.073367
@<TRIPOS>BOND
     1    1    2 1   
     2    1   11 1   
     3    1   31 1   
     4    1   32 1   
     5    2    3 1   
     6    2   33 1   
     7    2   34 1   
     8    3    4 1   
     9    3    5 1   
    10    3   35 1   
    11    4   27 1   
    12    5    6 1   
    13    5   36 1   
    14    5   37 1   
    15    6    7 1   
    16    6   11 1   
    17    6   38 1   
    18    7    8 1   
    19    7   39 1   
    20    7   40 1   
    21    8    9 1   
    22    8   41 1   
    23    8   42 1   
    24    9   10 1   
    25    9   15 1   
    26    9   43 1   
    27   10   11 1   
    28   10   12 1   
    29   10   44 1   
    30   11   20 1   
    31   12   13 1   
    32   12   45 1   
    33   12   46 1   
    34   13   14 1   
    35   13   47 1   
    36   13   48 1   
    37   14   15 1   
    38   14   18 1   
    39   14   19 1   
    40   15   16 1   
    41   15   49 1   
    42   16   17 1   
    43   16   50 1   
    44   16   51 1   
    45   17   18 1   
    46   17   52 1   
    47   17   53 1   
    48   18   21 1   
    49   18   54 1   
    50   19   55 1   
    51   19   56 1   
    52   19   57 1   
    53   20   58 1   
    54   20   59 1   
    55   20   60 1   
    56   21   22 1   
    57   21   23 1   
    58   21   61 1   
    59   22   62 1   
    60   22   63 1   
    61   22   64 1   
    62   23   24 1   
    63   23   65 1   
    64   23   66 1   
    65   24   25 1   
    66   24   67 1   
    67   24   68 1   
    68   25   28 1   
    69   25   29 1   
    70   26   27 1   
    71   26   69 1   
    72   26   70 1   
    73   26   71 1   
    74   27   30 2   
@<TRIPOS>SUBSTRUCTURE
     1 LOA         1 TEMP              0 ****  ****    0 ROOT
