@<TRIPOS>MOLECULE
molecule
   71    74     1     0     0
SMALL
bcc


@<TRIPOS>ATOM
      1 C1           0.0000     0.0000     0.0000 c3         1 LOA      -0.068400
      2 C2           1.5290     0.0000     0.0000 c3         1 LOA      -0.100400
      3 C3           2.0400     0.0000     1.4420 c3         1 LOA       0.148100
      4 O3           3.4930     0.0000     1.4420 os         1 LOA      -0.426900
      5 C4           1.5300     1.2510     2.1620 c3         1 LOA      -0.078400
      6 C5           0.0000     1.2480     2.1640 c3         1 LOA      -0.052700
      7 C6          -0.5130     2.4920     2.8910 c3         1 LOA      -0.076400
      8 C7          -0.0190     3.7470     2.1670 c3         1 LOA      -0.078400
      9 C8          -0.5430     3.7450     0.7300 c3         1 LOA      -0.062700
     10 C9          -0.0100     2.5000     0.0030 c3         1 LOA      -0.055700
     11 C10         -0.5120     1.2480     0.7230 c3         1 LOA      -0.057000
     12 C11         -0.4630     2.4650    -1.4520 c3         1 LOA      -0.082400
     13 C12         -0.0760     3.7570    -2.1910 c3         1 LOA      -0.064400
     14 C13         -0.7020     4.9140    -1.4370 c3         1 LOA      -0.063000
     15 C14         -0.0320     4.9600    -0.0200 c3         1 LOA      -0.070700
     16 C15         -0.5080     6.3190     0.5020 c3         1 LOA      -0.079400
     17 C16         -0.3440     7.2430    -0.7360 c3         1 LOA      -0.077400
     18 C17         -0.4370     6.3100    -1.9910 c3         1 LOA      -0.051700
     19 C18         -2.2080     4.6870    -1.2990 c3         1 LOA      -0.090100
     20 C19         -2.0420     1.2430     0.7260 c3         1 LOA      -0.087100
     21 C20         -1.5770     6.7360    -2.9190 c3         1 LOA      -0.079700
     22 C21         -1.5910     5.8370    -4.1560 c3         1 LOA      -0.092100
     23 C22         -1.3680     8.1910    -3.3480 c3         1 LOA      -0.061400
     24 C23         -2.5690     8.6560    -4.1740 c3         1 LOA      -0.185400
     25 C24         -2.3640    10.0880    -4.5960 c          1 LOA       0.890600
     26 C25          5.6070    -1.2730     1.4420 c3         1 LOA      -0.141100
     27 C26          4.1020    -1.1950     1.4430 c          1 LOA       0.631100
     28 OT1         -1.3600    10.6760    -4.2700 o          1 LOA      -0.857300
     29 OT2         -3.2970    10.7110    -5.3340 o          1 LOA      -0.857300
     30 O25          3.4440    -2.2080     1.4430 o          1 LOA      -0.560000
     31 H1          -0.3590    -0.8850     0.5110 hc         1 LOA       0.047200
     32 H2          -0.3590     0.0040    -1.0220 hc         1 LOA       0.047200
     33 H3           1.8890     0.8860    -0.5090 hc         1 LOA       0.054700
     34 H4           1.8890    -0.8860    -0.5090 hc         1 LOA       0.054700
     35 H5           1.6750    -0.8830     1.9530 h1         1 LOA       0.067700
     36 H6           1.8880     2.1340     1.6480 hc         1 LOA       0.056200
     37 H7           1.8910     1.2500     3.1840 hc         1 LOA       0.056200
     38 H8          -0.3570     0.3610     2.6730 hc         1 LOA       0.046700
     39 H9          -1.5960     2.4840     2.8980 hc         1 LOA       0.040200
     40 H10         -0.1400     2.4940     3.9080 hc         1 LOA       0.040200
     41 H11          1.0640     3.7540     2.1560 hc         1 LOA       0.043200
     42 H12         -0.3850     4.6270     2.6830 hc         1 LOA       0.043200
     43 H13         -1.6260     3.7390     0.7310 hc         1 LOA       0.067700
     44 H14          1.0720     2.5130     0.0330 hc         1 LOA       0.054700
     45 H15         -1.5400     2.3500    -1.4840 hc         1 LOA       0.040200
     46 H16          0.0030     1.6220    -1.9470 hc         1 LOA       0.040200
     47 H17         -0.4590     3.7290    -3.2040 hc         1 LOA       0.044700
     48 H18          1.0020     3.8650    -2.2020 hc         1 LOA       0.044700
     49 H19          1.0480     4.9360    -0.1060 hc         1 LOA       0.053700
     50 H20         -1.5470     6.2690     0.8060 hc         1 LOA       0.037700
     51 H21          0.1210     6.6570     1.3170 hc         1 LOA       0.037700
     52 H22          0.6220     7.7330    -0.7080 hc         1 LOA       0.052700
     53 H23         -1.1400     7.9780    -0.7590 hc         1 LOA       0.052700
     54 H24          0.5040     6.3200    -2.5260 hc         1 LOA       0.050700
     55 H25         -2.6670     5.5650    -0.8600 hc         1 LOA       0.037700
     56 H26         -2.6370     4.5060    -2.2770 hc         1 LOA       0.037700
     57 H27         -2.3880     3.8290    -0.6620 hc         1 LOA       0.037700
     58 H28         -2.4000     0.4320     1.3490 hc         1 LOA       0.037367
     59 H29         -2.4060     2.1860     1.1150 hc         1 LOA       0.037367
     60 H30         -2.4040     1.1060    -0.2860 hc         1 LOA       0.037367
     61 H31         -2.5210     6.6460    -2.3960 hc         1 LOA       0.047700
     62 H32         -0.5950     5.4470    -4.3300 hc         1 LOA       0.029700
     63 H33         -2.2780     5.0150    -3.9980 hc         1 LOA       0.029700
     64 H34         -1.9080     6.4120    -5.0180 hc         1 LOA       0.029700
     65 H35         -1.2700     8.8160    -2.4690 hc         1 LOA       0.047200
     66 H36         -0.4680     8.2650    -3.9460 hc         1 LOA       0.047200
     67 H37         -2.6670     8.0310    -5.0530 hc         1 LOA       0.027700
     68 H38         -3.4690     8.5810    -3.5760 hc         1 LOA       0.027700
     69 H39          5.9310    -2.0020     2.1750 hc         1 LOA       0.066367
     70 H40          5.9530    -1.5710     0.4600 hc         1 LOA       0.066367
     71 H41          6.0190    -0.3030     1.6920 hc         1 LOA       0.066367
@<TRIPOS>BOND
     1    20    11 1
     2     1    11 1
     3     1     2 1
     4    11     6 1
     5    11    10 1
     6     6     7 1
     7     6     5 1
     8     2     3 1
     9     7     8 1
    10    30    27 2
    11     3     5 1
    12     3     4 1
    13    12    10 1
    14    12    13 1
    15    10     9 1
    16     9     8 1
    17     9    15 1
    18    19    14 1
    19    27     4 1
    20    27    26 1
    21    13    14 1
    22    14    15 1
    23    14    18 1
    24    15    16 1
    25    16    17 1
    26    22    21 1
    27    18    21 1
    28    18    17 1
    29    21    23 1
    30    23    24 1
    31    24    25 1
    32    25    28 1
    33    25    29 1
    34     1    31 1
    35     1    32 1
    36     2    33 1
    37     2    34 1
    38     3    35 1
    39     5    36 1
    40     5    37 1
    41     6    38 1
    42     7    39 1
    43     7    40 1
    44     8    41 1
    45     8    42 1
    46     9    43 1
    47    10    44 1
    48    12    45 1
    49    12    46 1
    50    13    47 1
    51    13    48 1
    52    15    49 1
    53    16    50 1
    54    16    51 1
    55    17    52 1
    56    17    53 1
    57    18    54 1
    58    19    55 1
    59    19    56 1
    60    19    57 1
    61    20    58 1
    62    20    59 1
    63    20    60 1
    64    21    61 1
    65    22    62 1
    66    22    63 1
    67    22    64 1
    68    23    65 1
    69    23    66 1
    70    24    67 1
    71    24    68 1
    72    26    69 1
    73    26    70 1
    74    26    71 1
@<TRIPOS>SUBSTRUCTURE
     1 LOA         1 TEMP              0 ****  ****    0 ROOT
