@<TRIPOS>MOLECULE
molecule
   52    54     1     0     0
SMALL
bcc


@<TRIPOS>ATOM
      1 O1           0.0000     0.0000     0.0000 o          1 LOB      -0.532100
      2 C3           1.2130     0.0000     0.0000 c          1 LOB       0.577700
      3 C1           1.9490     0.0000     1.2740 ca         1 LOB      -0.179600
      4 C2           1.2540    -0.0010     2.4880 ca         1 LOB      -0.079000
      5 C5           1.9510    -0.0010     3.6780 ca         1 LOB      -0.143500
      6 C6           3.3350     0.0010     3.6730 ca         1 LOB      -0.100000
      7 C7           4.0300     0.0020     2.4760 ca         1 LOB      -0.143500
      8 C4           3.3470    -0.0050     1.2770 ca         1 LOB      -0.079000
      9 C8           1.9660     0.0010    -1.3050 c3         1 LOB      -0.177400
     10 C9           0.9770    -0.1330    -2.4640 c3         1 LOB       0.157500
     11 C12          0.3100    -1.5090    -2.4070 c3         1 LOB      -0.077400
     12 C15         -0.7040    -1.6250    -3.5490 c3         1 LOB      -0.080400
     13 C13          0.0070    -1.3470    -4.8780 c3         1 LOB      -0.077400
     14 C11          0.6890     0.0200    -4.8060 c3         1 LOB       0.147500
     15 N1           1.6940     0.0180    -3.7360 n3         1 LOB      -0.672600
     16 C22          2.2980     1.3570    -3.7220 c3         1 LOB       0.110100
     17 C14          1.3720     0.3180    -6.1420 c3         1 LOB      -0.072400
     18 C16          0.3130     0.4190    -7.2430 c3         1 LOB       0.190400
     19 O2          -0.5520     1.5230    -6.9720 oh         1 LOB      -0.605800
     20 C17          0.9900     0.6260    -8.5730 ca         1 LOB      -0.125300
     21 C18          1.1670    -0.4410    -9.4330 ca         1 LOB      -0.112000
     22 C20          1.7880    -0.2510   -10.6530 ca         1 LOB      -0.131000
     23 C21          2.2330     1.0080   -11.0130 ca         1 LOB      -0.125000
     24 C10          2.0550     2.0750   -10.1540 ca         1 LOB      -0.131000
     25 C19          1.4300     1.8860    -8.9360 ca         1 LOB      -0.112000
     26 H2           0.1700    -0.0020     2.4930 ha         1 LOB       0.144000
     27 H5           1.4140    -0.0020     4.6190 ha         1 LOB       0.134000
     28 H6           3.8770     0.0030     4.6110 ha         1 LOB       0.132000
     29 H7           5.1130     0.0000     2.4810 ha         1 LOB       0.134000
     30 H4           3.8930    -0.0050     0.3420 ha         1 LOB       0.144000
     31 H8C1         2.6580    -0.8320    -1.3230 hc         1 LOB       0.074700
     32 H8C2         2.5150     0.9290    -1.4040 hc         1 LOB       0.074700
     33 H9           0.2170     0.6360    -2.3870 h1         1 LOB       0.048700
     34 H121         1.0640    -2.2800    -2.5150 hc         1 LOB       0.056200
     35 H122        -0.2000    -1.6240    -1.4590 hc         1 LOB       0.056200
     36 H151        -1.4960    -0.9000    -3.4040 hc         1 LOB       0.043200
     37 H152        -1.1190    -2.6260    -3.5640 hc         1 LOB       0.043200
     38 H131         0.7520    -2.1130    -5.0550 hc         1 LOB       0.045700
     39 H132        -0.7180    -1.3470    -5.6820 hc         1 LOB       0.045700
     40 H11         -0.0540     0.7800    -4.5980 h1         1 LOB       0.047700
     41 H221         3.2060     1.3380    -3.1320 h1         1 LOB       0.038367
     42 H222         1.6000     2.0630    -3.2880 h1         1 LOB       0.038367
     43 H223         2.5320     1.6580    -4.7360 h1         1 LOB       0.038367
     44 H141         2.0650    -0.4790    -6.3800 hc         1 LOB       0.064200
     45 H142         1.9100     1.2560    -6.0720 hc         1 LOB       0.064200
     46 H16         -0.2670    -0.4960    -7.2720 h1         1 LOB       0.040700
     47 HA          -1.3830     1.3830    -7.3960 ho         1 LOB       0.405000
     48 H18          0.8190    -1.4270    -9.1510 ha         1 LOB       0.136000
     49 H20          1.9270    -1.0880   -11.3270 ha         1 LOB       0.130000
     50 H21          2.7210     1.1570   -11.9690 ha         1 LOB       0.129000
     51 H10          2.4020     3.0620   -10.4370 ha         1 LOB       0.130000
     52 H19          1.2910     2.7230    -8.2620 ha         1 LOB       0.136000
@<TRIPOS>BOND
     1     1     2 2
     2     2     3 1
     3     2     9 1
     4     3     4 ar
     5     3     8 ar
     6     4     5 ar
     7     4    26 1
     8     5     6 ar
     9     5    27 1
    10     6     7 ar
    11     6    28 1
    12     7     8 ar
    13     7    29 1
    14     8    30 1
    15     9    10 1
    16     9    31 1
    17     9    32 1
    18    10    11 1
    19    10    15 1
    20    10    33 1
    21    11    12 1
    22    11    34 1
    23    11    35 1
    24    12    13 1
    25    12    36 1
    26    12    37 1
    27    13    14 1
    28    13    38 1
    29    13    39 1
    30    14    15 1
    31    14    17 1
    32    14    40 1
    33    15    16 1
    34    16    41 1
    35    16    42 1
    36    16    43 1
    37    17    18 1
    38    17    44 1
    39    17    45 1
    40    18    19 1
    41    18    20 1
    42    18    46 1
    43    19    47 1
    44    20    21 ar
    45    20    25 ar
    46    21    22 ar
    47    21    48 1
    48    22    23 ar
    49    22    49 1
    50    23    24 ar
    51    23    50 1
    52    24    25 ar
    53    24    51 1
    54    25    52 1
@<TRIPOS>SUBSTRUCTURE
     1 LOB         1 TEMP              0 ****  ****    0 ROOT
