@<TRIPOS>MOLECULE
molecule
   54    56     1     0     0
SMALL
bcc


@<TRIPOS>ATOM
      1 O4           0.0000     0.0000     0.0000 o          1 LOC      -0.604100
      2 C12          1.2120     0.0000     0.0000 c          1 LOC       0.660100
      3 C13          1.9660     0.0000     1.3050 c3         1 LOC      -0.171100
      4 N1           1.8860    -0.0070    -1.1680 ns         1 LOC      -0.589900
      5 C11          1.1530    -0.0120    -2.4360 c3         1 LOC       0.142900
      6 C14          0.7980    -1.4400    -2.7940 cc         1 LOC       0.011800
      7 C15          1.5230    -2.4030    -2.1990 cd         1 LOC      -0.246200
      8 C10          2.0100     0.6380    -3.5040 c3         1 LOC      -0.083400
      9 C9           1.4650     0.3460    -4.8990 c3         1 LOC      -0.032100
     10 C8          -0.0320     0.5210    -4.9070 ca         1 LOC      -0.035300
     11 C7          -0.5950     1.6460    -5.4720 ca         1 LOC      -0.220000
     12 C5          -1.9760     1.8010    -5.4870 ca         1 LOC       0.138100
     13 C3          -2.7980     0.8250    -4.9340 ca         1 LOC       0.057100
     14 C1          -2.2380    -0.3090    -4.3590 ca         1 LOC       0.144100
     15 O1          -3.0340    -1.2680    -3.8170 os         1 LOC      -0.353900
     16 C2          -3.4570    -1.0710    -2.4670 c3         1 LOC       0.139700
     17 O2          -4.1490     0.9810    -4.9560 os         1 LOC      -0.333900
     18 C4          -4.8440     0.4650    -6.0940 c3         1 LOC       0.139700
     19 O3          -2.5250     2.9120    -6.0440 os         1 LOC      -0.311900
     20 C6          -1.6260     3.8760    -6.5940 c3         1 LOC       0.125700
     21 C22         -0.8470    -0.4550    -4.3430 ca         1 LOC      -0.105800
     22 C21         -0.2380    -1.6590    -3.7040 cc         1 LOC      -0.045200
     23 C20         -0.7500    -2.8770    -4.0710 cd         1 LOC      -0.033000
     24 C19         -0.4230    -4.1410    -3.7420 cd         1 LOC      -0.228000
     25 C17          0.5760    -4.5800    -2.9300 cc         1 LOC       0.093900
     26 C16          1.4800    -3.7680    -2.2530 c          1 LOC       0.562500
     27 O5           2.3500    -4.3530    -1.6230 o          1 LOC      -0.568100
     28 O6           0.7010    -5.9190    -2.7670 os         1 LOC      -0.284900
     29 C18         -0.2300    -6.7480    -3.4640 c3         1 LOC       0.117700
     30 H13          2.7900     0.7010     1.2460 hc         1 LOC       0.063033
     31 H13A         1.3000     0.2930     2.1070 hc         1 LOC       0.063033
     32 H13B         2.3510    -0.9940     1.4990 hc         1 LOC       0.063033
     33 HN1          2.8870     0.0310    -1.1680 hn         1 LOC       0.316500
     34 H11          0.2400     0.5590    -2.3230 h1         1 LOC       0.100700
     35 H15          2.2970    -2.0200    -1.5450 ha         1 LOC       0.152000
     36 H10          3.0120     0.2320    -3.4350 hc         1 LOC       0.053700
     37 H10A         1.9970     1.7100    -3.3490 hc         1 LOC       0.053700
     38 H9           1.9020     1.0490    -5.5980 hc         1 LOC       0.060700
     39 H9A          1.6970    -0.6810    -5.1550 hc         1 LOC       0.060700
     40 H7           0.0400     2.4100    -5.9040 ha         1 LOC       0.142000
     41 H2          -3.0570    -1.8620    -1.8440 h1         1 LOC       0.044033
     42 H2A         -3.0970    -0.1130    -2.1120 h1         1 LOC       0.044033
     43 H2B         -4.5400    -1.0890    -2.4220 h1         1 LOC       0.044033
     44 H4          -4.1360     0.0030    -6.7710 h1         1 LOC       0.036033
     45 H4A         -5.3550     1.2740    -6.6020 h1         1 LOC       0.036033
     46 H4B         -5.5690    -0.2720    -5.7700 h1         1 LOC       0.036033
     47 H6          -2.1920     4.6800    -7.0490 h1         1 LOC       0.042700
     48 H6A         -1.0030     3.4030    -7.3440 h1         1 LOC       0.042700
     49 H6B         -1.0000     4.2760    -5.8060 h1         1 LOC       0.042700
     50 H20         -1.5800    -2.8090    -4.7640 ha         1 LOC       0.140000
     51 H19         -1.0390    -4.9140    -4.1840 ha         1 LOC       0.135000
     52 H18         -0.1400    -6.5740    -4.5300 h1         1 LOC       0.047033
     53 H18A        -0.0200    -7.7880    -3.2490 h1         1 LOC       0.047033
     54 H18B        -1.2370    -6.5090    -3.1440 h1         1 LOC       0.047033
@<TRIPOS>BOND
     1     1     2 2
     2     2     3 1
     3     2     4 1
     4     4     5 1
     5     5     6 1
     6     5     8 1
     7     6     7 2
     8     6    22 1
     9     7    26 1
    10     8     9 1
    11     9    10 1
    12    10    11 ar
    13    10    21 ar
    14    11    12 ar
    15    12    13 ar
    16    12    19 1
    17    13    14 ar
    18    13    17 1
    19    14    15 1
    20    14    21 ar
    21    15    16 1
    22    17    18 1
    23    19    20 1
    24    21    22 1
    25    22    23 2
    26    23    24 1
    27    24    25 2
    28    25    26 1
    29    25    28 1
    30    26    27 2
    31    28    29 1
    32     3    30 1
    33     3    31 1
    34     3    32 1
    35     4    33 1
    36     5    34 1
    37     7    35 1
    38     8    36 1
    39     8    37 1
    40     9    38 1
    41     9    39 1
    42    11    40 1
    43    16    41 1
    44    16    42 1
    45    16    43 1
    46    18    44 1
    47    18    45 1
    48    18    46 1
    49    20    47 1
    50    20    48 1
    51    20    49 1
    52    23    50 1
    53    24    51 1
    54    29    52 1
    55    29    53 1
    56    29    54 1
@<TRIPOS>SUBSTRUCTURE
     1 LOC         1 TEMP              0 ****  ****    0 ROOT
