@<TRIPOS>MOLECULE
LOF
   21    21     1     0     0
SMALL
bcc


@<TRIPOS>ATOM
      1 C1          0.0850    0.2350   -0.4100 c         1 LOF      0.892600
      2 O1         -0.8040    0.3730    0.4790 o         1 LOF     -0.833800
      3 O2         -0.1260    0.2030   -1.6510 o         1 LOF     -0.833800
      4 C2          1.5500    0.0980    0.0890 c3        1 LOF      0.019100
      5 O3          1.6470    0.2730    1.4920 oh        1 LOF     -0.643800
      6 C3          2.1000   -1.2760   -0.2980 c3        1 LOF     -0.058100
      7 C1'         3.5710   -1.2770   -0.5170 ca        1 LOF     -0.032300
      8 C2'         4.4320   -1.9480    0.3610 ca        1 LOF     -0.132500
      9 C3'         5.8080   -1.9560    0.1340 ca        1 LOF     -0.139000
     10 C4'         6.3400   -1.2960   -0.9720 ca        1 LOF     -0.160000
     11 C5'         5.4900   -0.6210   -1.8490 ca        1 LOF     -0.139000
     12 C6'         4.1160   -0.6100   -1.6240 ca        1 LOF     -0.132500
     13 H2          2.1750    0.9090   -0.3750 h1        1 LOF      0.041700
     14 HO3         0.7390    0.2670    1.8400 ho        1 LOF      0.424000
     15 H31         1.5910   -1.5860   -1.2530 hc        1 LOF      0.059700
     16 H32         1.8270   -2.0120    0.5010 hc        1 LOF      0.059700
     17 H2'         4.0170   -2.4600    1.2410 ha        1 LOF      0.138500
     18 H3'         6.4740   -2.4830    0.8310 ha        1 LOF      0.112500
     19 H4'         7.4240   -1.3030   -1.1510 ha        1 LOF      0.109000
     20 H5'         5.9060   -0.0940   -2.7190 ha        1 LOF      0.112500
     21 H6'         3.4410   -0.0750   -2.3100 ha        1 LOF      0.138500
@<TRIPOS>BOND
     1    1    2 1   
     2    1    3 1   
     3    1    4 1   
     4    4    5 1   
     5    4    6 1   
     6    4   13 1   
     7    5   14 1   
     8    6    7 1   
     9    6   15 1   
    10    6   16 1   
    11    7    8 ar  
    12    7   12 ar  
    13    8    9 ar  
    14    8   17 1   
    15    9   10 ar  
    16    9   18 1   
    17   10   11 ar  
    18   10   19 1   
    19   11   12 ar  
    20   11   20 1   
    21   12   21 1   
@<TRIPOS>SUBSTRUCTURE
     1 LOF         1 TEMP              0 ****  ****    0 ROOT
