@<TRIPOS>MOLECULE
molecule
   21    21     1     0     0
SMALL
bcc


@<TRIPOS>ATOM
      1 C1           0.0000     0.0000     0.0000 c          1 LOF       0.868600
      2 O1          -0.6050     0.0010     1.0440 o          1 LOF      -0.840800
      3 O2          -0.6700     0.0010    -1.1630 o          1 LOF      -0.840800
      4 C2           1.5070     0.0000     0.0000 c3         1 LOF       0.044100
      5 O3           1.9820     0.0000     1.3480 oh         1 LOF      -0.617800
      6 C3           2.0170    -1.2490    -0.7200 c3         1 LOF      -0.020100
      7 C1'          3.5230    -1.2500    -0.7180 ca         1 LOF      -0.052300
      8 C2'          4.2130    -1.8480     0.3190 ca         1 LOF      -0.122000
      9 C3'          5.5960    -1.8490     0.3200 ca         1 LOF      -0.141500
     10 C4'          6.2870    -1.2510    -0.7170 ca         1 LOF      -0.156000
     11 C5'          5.5980    -0.6550    -1.7540 ca         1 LOF      -0.141500
     12 C6'          4.2150    -0.6570    -1.7570 ca         1 LOF      -0.122000
     13 H2           1.8690     0.8840    -0.5110 h1         1 LOF       0.017700
     14 HO3          1.9500     0.8770     1.6920 ho         1 LOF       0.390000
     15 H31          1.6570    -1.2490    -1.7410 hc         1 LOF       0.064700
     16 H32          1.6540    -2.1330    -0.2090 hc         1 LOF       0.064700
     17 H2'          3.6710    -2.3160     1.1310 ha         1 LOF       0.136500
     18 H3'          6.1370    -2.3180     1.1330 ha         1 LOF       0.111500
     19 H4'          7.3710    -1.2510    -0.7160 ha         1 LOF       0.108000
     20 H5'          6.1410    -0.1880    -2.5670 ha         1 LOF       0.111500
     21 H6'          3.6740    -0.1890    -2.5700 ha         1 LOF       0.136500
@<TRIPOS>BOND
     1     1     2 1
     2     1     3 1
     3     1     4 1
     4     4     5 1
     5     4     6 1
     6     4    13 1
     7     5    14 1
     8     6     7 1
     9     6    15 1
    10     6    16 1
    11     7     8 ar
    12     7    12 ar
    13     8     9 ar
    14     8    17 1
    15     9    10 ar
    16     9    18 1
    17    10    11 ar
    18    10    19 1
    19    11    12 ar
    20    11    20 1
    21    12    21 1
@<TRIPOS>SUBSTRUCTURE
     1 LOF         1 TEMP              0 ****  ****    0 ROOT
