@<TRIPOS>MOLECULE
molecule
   27    26     1     0     0
SMALL
bcc


@<TRIPOS>ATOM
      1 NZ           0.0000     0.0000     0.0000 nz         1 LOH      -0.810600
      2 CE           1.4690     0.0000     0.0000 c3         1 LOH       0.094800
      3 CD           1.9780     0.0000     1.4430 c3         1 LOH      -0.136400
      4 CG           3.5090     0.0010     1.4430 c3         1 LOH       0.156100
      5 CB           4.0180     0.1270     2.8800 c3         1 LOH       0.139100
      6 CA           5.5470     0.0670     2.8860 c3         1 LOH      -0.023500
      7 N            6.0310     0.0540     4.2730 nz         1 LOH      -0.787600
      8 C            6.0990     1.2750     2.1730 c          1 LOH       0.860600
      9 O            6.5060     2.2180     2.8080 o          1 LOH      -0.767300
     10 OH1          3.4970    -0.9460     3.6670 oh         1 LOH      -0.609800
     11 OH2          3.9850    -1.2210     0.8750 oh         1 LOH      -0.592800
     12 O1           6.1390     1.3020     0.8310 o          1 LOH      -0.767300
     13 H1          -0.3340     0.8150     0.4750 hn         1 LOH       0.457467
     14 H2          -0.3340     0.0030    -0.9440 hn         1 LOH       0.457467
     15 H4           1.8290     0.8850    -0.5100 hx         1 LOH       0.119700
     16 H5           1.8300    -0.8840    -0.5110 hx         1 LOH       0.119700
     17 H6           1.6170     0.8840     1.9540 hc         1 LOH       0.072200
     18 H7           1.6180    -0.8850     1.9540 hc         1 LOH       0.072200
     19 H8           3.8700     0.8370     0.8570 h1         1 LOH       0.113700
     20 H9           3.6920     1.0720     3.2970 h1         1 LOH       0.058700
     21 H10          5.8760    -0.8330     2.3800 hx         1 LOH       0.135700
     22 H11          5.4950     0.6990     4.8200 hn         1 LOH       0.448800
     23 H12          6.9950     0.3230     4.2930 hn         1 LOH       0.448800
     24 H14          2.9780    -0.5960     4.3720 ho         1 LOH       0.407000
     25 H15          4.3240    -1.0550     0.0110 ho         1 LOH       0.430000
     26 HZ3         -0.3340    -0.8510     0.4070 hn         1 LOH       0.457467
     27 HN3          5.9530    -0.8710     4.6450 hn         1 LOH       0.448800
@<TRIPOS>BOND
     1    11     4 1
     2     2     1 1
     3     2     3 1
     4     4     3 1
     5     4     5 1
     6    10     5 1
     7     5     6 1
     8     6     7 1
     9     6     8 1
    10     8     9 1
    11     8    12 1
    12     1    13 1
    13     1    14 1
    14     2    15 1
    15     2    16 1
    16     3    17 1
    17     3    18 1
    18     4    19 1
    19     5    20 1
    20     6    21 1
    21     7    22 1
    22     7    23 1
    23    10    24 1
    24    11    25 1
    25    26     1 1
    26    27     7 1
@<TRIPOS>SUBSTRUCTURE
     1 LOH         1 TEMP              0 ****  ****    0 ROOT
