@<TRIPOS>MOLECULE
molecule
   40    42     1     0     0
SMALL
bcc


@<TRIPOS>ATOM
      1 C4           0.0000     0.0000     0.0000 ca         1 LOI       0.016000
      2 C5           1.3780     0.0000     0.0000 ca         1 LOI      -0.235000
      3 C6          -0.0230    -0.0010     2.4060 ca         1 LOI       0.016000
      4 C7           3.6790    -0.0810     7.9720 cc         1 LOI      -0.254400
      5 C8          -3.7310    -3.6810     0.9160 cc         1 LOI       0.351400
      6 C10         -0.7040    -0.0020     1.2010 ca         1 LOI      -0.082100
      7 C13          2.1250    -0.1240     6.0620 cc         1 LOI       0.543300
      8 C2           4.1990     0.1440    -0.0620 c3         1 LOI       0.214100
      9 C9           2.3860    -0.2170     8.2750 cd         1 LOI       0.398600
     10 C11          2.0760     0.0000     1.2010 ca         1 LOI       0.294600
     11 C12          1.3750    -0.0010     2.4160 ca         1 LOI      -0.261600
     12 C14         -2.7690    -1.7310     1.0370 cc         1 LOI       0.447800
     13 N16         -2.4410    -3.8190     0.8000 nd         1 LOI      -0.349000
     14 N17          1.5770    -0.2370     7.2320 nd         1 LOI      -0.741000
     15 N18         -1.8670    -2.6710     0.8690 nd         1 LOI      -0.356000
     16 N19          3.4680    -0.0010     1.1990 nu         1 LOI      -0.799600
     17 N20          1.4350    -0.1250     4.8570 ns         1 LOI      -0.510400
     18 N21         -3.9860    -2.3480     1.0710 na         1 LOI      -0.320700
     19 O22          3.3180     0.1120     3.7030 o          1 LOI      -0.623100
     20 S23          3.8210     0.0250     6.2200 ss         1 LOI      -0.090300
     21 S24         -2.4650    -0.0020     1.1880 ss         1 LOI      -0.235200
     22 H4          -0.5390    -0.0000    -0.9400 ha         1 LOI       0.146000
     23 H5           1.9190     0.0010    -0.9390 ha         1 LOI       0.145000
     24 H6          -0.5720    -0.0020     3.3400 ha         1 LOI       0.136000
     25 H7           4.4970    -0.0420     8.6800 h4         1 LOI       0.178000
     26 H8          -4.4660    -4.4770     0.8940 h5         1 LOI       0.072100
     27 H1           2.3320    -1.2100    10.1570 hc         1 LOI       0.049700
     28 H1A          0.8110    -0.4360     9.6910 hc         1 LOI       0.049700
     29 H1B          2.1690     0.5490    10.2500 hc         1 LOI       0.049700
     30 H2           3.9790    -0.7000    -0.7050 h1         1 LOI       0.039700
     31 H2A          3.8950     1.0600    -0.5520 h1         1 LOI       0.039700
     32 H2B          5.2630     0.1770     0.1390 h1         1 LOI       0.039700
     33 H3          -5.2870    -0.7360     0.7680 h1         1 LOI       0.059367
     34 H3A         -6.0590    -2.3280     0.7790 h1         1 LOI       0.059367
     35 H3B         -5.5100    -1.6010     2.2950 h1         1 LOI       0.059367
     36 HN19         3.9700    -0.1400     2.0540 hn         1 LOI       0.486800
     37 HN20         0.4380    -0.2100     4.8520 hn         1 LOI       0.348500
     38 C15          2.1070    -0.0010     3.6950 c          1 LOI       0.699700
     39 C1           1.8900    -0.3370     9.6930 c3         1 LOI      -0.117400
     40 C3          -5.2960    -1.7120     1.2390 c3         1 LOI       0.033600
@<TRIPOS>BOND
     1     1     2 ar
     2     1     6 ar
     3     2    10 ar
     4     3     6 ar
     5     3    11 ar
     6     4     9 2
     7     4    20 1
     8     5    13 2
     9     5    18 1
    10     6    21 1
    11     7    14 2
    12     7    17 1
    13     7    20 1
    14    38    11 1
    15    38    17 1
    16    38    19 2
    17    39     9 1
    18     8    16 1
    19    40    18 1
    20     9    14 1
    21    10    11 ar
    22    10    16 1
    23    12    15 2
    24    12    18 1
    25    12    21 1
    26    13    15 1
    27     1    22 1
    28     2    23 1
    29     3    24 1
    30     4    25 1
    31     5    26 1
    32    39    27 1
    33    39    28 1
    34    39    29 1
    35     8    30 1
    36     8    31 1
    37     8    32 1
    38    40    33 1
    39    40    34 1
    40    40    35 1
    41    16    36 1
    42    17    37 1
@<TRIPOS>SUBSTRUCTURE
     1 LOI         1 TEMP              0 ****  ****    0 ROOT
