@<TRIPOS>MOLECULE
LOM
    8     8     1     0     0
SMALL
bcc


@<TRIPOS>ATOM
      1 C1          0.0610   -0.0000    0.1080 cc        1 LOM      0.369300
      2 N1          1.3700   -0.0000   -0.1180 nd        1 LOM     -0.628000
      3 C2          2.0430   -0.0000    1.0960 cd        1 LOM      0.327200
      4 C3          1.2260    0.0000    2.2170 cc        1 LOM     -0.248400
      5 S1         -0.3870    0.0000    1.7600 ss        1 LOM     -0.101300
      6 H1         -0.6650   -0.0000   -0.7090 h5        1 LOM      0.054100
      7 H2          3.1390   -0.0000    1.0900 h4        1 LOM      0.045100
      8 H3          1.5670    0.0000    3.2490 h4        1 LOM      0.181000
@<TRIPOS>BOND
     1    1    2 2
     2    1    5 1
     3    1    6 1
     4    2    3 1
     5    3    4 2
     6    3    7 1
     7    4    5 1
     8    4    8 1
@<TRIPOS>SUBSTRUCTURE
     1 LOM         1 TEMP              0 ****  ****    0 ROOT
