@<TRIPOS>MOLECULE
LON
   52    54     1     0     0
SMALL
bcc


@<TRIPOS>ATOM
      1 C01          0.0000     0.0000     0.0000 c3         1 LON       0.175100
      2 N02          1.4690     0.0000     0.0000 n7         1 LON      -0.592200
      3 C03          1.9970     0.0000     1.3710 c3         1 LON       0.147700
      4 C04          1.8770    -1.3970     1.9460 c3         1 LON      -0.015400
      5 C05          2.7190    -1.5440     3.2100 c3         1 LON       0.024900
      6 C06          2.5290    -0.3360     4.0900 ca         1 LON      -0.027300
      7 C07          1.7380    -0.4170     5.2170 ca         1 LON      -0.210000
      8 C08          1.5760     0.6950     6.0350 ca         1 LON       0.146100
      9 O09          0.7960     0.6090     7.1440 os         1 LON      -0.291900
     10 C10          0.1750    -0.6500     7.4060 c3         1 LON       0.240700
     11 C11          2.2080     1.8930     5.7240 ca         1 LON       0.051100
     12 O12          2.0490     2.9770     6.5310 os         1 LON      -0.318900
     13 C13          3.0120     3.1590     7.5710 c3         1 LON       0.255700
     14 C14          3.0030     1.9830     4.5880 ca         1 LON       0.141100
     15 O15          3.6250     3.1510     4.2770 os         1 LON      -0.333900
     16 C16          2.8670     4.1110     3.5370 c3         1 LON       0.259700
     17 C17          3.1590     0.8610     3.7680 ca         1 LON      -0.108800
     18 C18          3.9930     0.9590     2.5330 cc         1 LON      -0.040200
     19 C19          5.2360     1.5190     2.6710 cd         1 LON      -0.012000
     20 C20          6.2450     1.7290     1.8060 cd         1 LON      -0.225000
     21 C21          6.3220     1.3930     0.4890 cc         1 LON       0.108900
     22 O22          7.4640     1.7110    -0.1670 os         1 LON      -0.260900
     23 C23          8.4840     2.3690     0.5870 c3         1 LON       0.230700
     24 C24          5.3250     0.7520    -0.2390 c          1 LON       0.595500
     25 O25          5.6120     0.4660    -1.3940 o          1 LON      -0.603100
     26 C26          4.0700     0.3990     0.1660 cd         1 LON      -0.243200
     27 C27          3.4330     0.4780     1.3470 cc         1 LON       0.013800
     28 H1          -0.3610    -0.9540     0.3640 h1         1 LON       0.001033
     29 H2          -0.3610     0.7920     0.6450 h1         1 LON       0.001033
     30 H3          -0.3610     0.1620    -1.0080 h1         1 LON       0.001033
     31 H4           1.8030     0.8090    -0.4860 hn         1 LON       0.268800
     32 H6           1.4110     0.6800     1.9780 h1         1 LON       0.026700
     33 H7           0.8400    -1.5750     2.2020 hc         1 LON       0.028700
     34 H8           2.2380    -2.1040     1.2090 hc         1 LON       0.028700
     35 H9           3.7630    -1.6080     2.9270 hc         1 LON       0.027700
     36 H10          2.3870    -2.4230     3.7490 hc         1 LON       0.027700
     37 H11          1.2470    -1.3500     5.4680 ha         1 LON       0.130000
     38 H12         -0.4390    -0.5720     8.2950 h1         1 LON      -0.001300
     39 H13         -0.4440    -0.9300     6.5630 h1         1 LON      -0.001300
     40 H14          0.9380    -1.4040     7.5600 h1         1 LON      -0.001300
     41 H15          3.7790     3.8470     7.2360 h1         1 LON      -0.008300
     42 H16          2.5240     3.5630     8.4490 h1         1 LON      -0.008300
     43 H17          3.4640     2.2060     7.8150 h1         1 LON      -0.008300
     44 H18          1.8800     3.7140     3.3350 h1         1 LON      -0.005967
     45 H19          3.3690     4.3230     2.6000 h1         1 LON      -0.005967
     46 H20          2.7790     5.0240     4.1140 h1         1 LON      -0.005967
     47 H22          5.4490     1.8600     3.6770 ha         1 LON       0.109000
     48 H24          7.1140     2.2320     2.2120 ha         1 LON       0.124000
     49 H25          8.1010     3.3070     0.9700 h1         1 LON       0.002700
     50 H26          9.3380     2.5620    -0.0510 h1         1 LON       0.002700
     51 H27          8.7860     1.7380     1.4140 h1         1 LON       0.002700
     52 H28          3.4650    -0.0310    -0.6230 ha         1 LON       0.154000
@<TRIPOS>BOND
     1     1     2 1   
     2     1    28 1   
     3     1    29 1   
     4     1    30 1   
     5     2     3 1   
     6     2    31 1   
     7     3     4 1   
     8     3    27 1   
     9     3    32 1   
    10     4     5 1   
    11     4    33 1   
    12     4    34 1   
    13     5     6 1   
    14     5    35 1   
    15     5    36 1   
    16     6     7 ar  
    17     6    17 ar  
    18     7     8 ar  
    19     7    37 1   
    20     8     9 1   
    21     8    11 ar  
    22     9    10 1   
    23    10    38 1   
    24    10    39 1   
    25    10    40 1   
    26    11    12 1   
    27    11    14 ar  
    28    12    13 1   
    29    13    41 1   
    30    13    42 1   
    31    13    43 1   
    32    14    15 1   
    33    14    17 ar  
    34    15    16 1   
    35    16    44 1   
    36    16    45 1   
    37    16    46 1   
    38    17    18 1   
    39    18    19 2   
    40    18    27 1   
    41    19    20 1   
    42    19    47 1   
    43    20    21 2   
    44    20    48 1   
    45    21    22 1   
    46    21    24 1   
    47    22    23 1   
    48    23    49 1   
    49    23    50 1   
    50    23    51 1   
    51    24    25 2   
    52    24    26 1   
    53    26    27 2   
    54    26    52 1   
@<TRIPOS>SUBSTRUCTURE
     1 LON         1 TEMP              0 ****  ****    0 ROOT
