@<TRIPOS>MOLECULE
LOP
  112   111     1     0     0
SMALL
bcc


@<TRIPOS>ATOM
      1 N1         -2.0020    0.5610    2.7750 n3        1 LOP     -0.907800
      2 C1         -2.0900   -0.5420    1.8510 c3        1 LOP      0.132800
      3 C2         -0.7930   -0.9800    1.1440 c3        1 LOP      0.161400
      4 O1          0.1150   -1.5540    2.0300 os        1 LOP     -0.591200
      5 P1          1.4720   -0.6400    2.3420 p5        1 LOP      1.427800
      6 O2          1.9270   -1.4360    3.7120 os        1 LOP     -0.560200
      7 O3          0.9440    0.6890    2.7040 o         1 LOP     -0.827000
      8 O4          2.4730   -0.9440    1.3060 o         1 LOP     -0.827000
      9 C3          2.5280   -2.6670    3.4360 c3        1 LOP      0.181400
     10 C4          2.7240   -3.4090    4.7650 c3        1 LOP      0.136100
     11 C5          1.4090   -3.7870    5.4410 c3        1 LOP      0.126400
     12 O5          3.4700   -4.5960    4.4150 os        1 LOP     -0.425900
     13 O6          0.5510   -4.3740    4.4550 os        1 LOP     -0.442900
     14 C6          4.1910   -5.2120    5.3880 c         1 LOP      0.633100
     15 O7          4.1960   -4.7550    6.5350 o         1 LOP     -0.563000
     16 C7          4.8980   -6.4340    4.8790 c3        1 LOP     -0.130400
     17 C8          6.2350   -6.6140    5.5640 c3        1 LOP     -0.078400
     18 C9          6.8810   -7.9190    5.1510 c3        1 LOP     -0.078400
     19 C10         8.2270   -8.0970    5.8190 c3        1 LOP     -0.079400
     20 C11         8.8740   -9.4030    5.4120 c3        1 LOP     -0.079400
     21 C12        10.2190   -9.5830    6.0820 c3        1 LOP     -0.077400
     22 C13        10.8640  -10.8900    5.6720 c3        1 LOP     -0.050200
     23 C14        12.1830  -11.0940    6.3150 c2        1 LOP     -0.168200
     24 C15        12.9460  -12.1750    6.1200 c2        1 LOP     -0.180200
     25 C16        12.5650  -13.3010    5.2360 c3        1 LOP     -0.048200
     26 C17        13.6200  -14.3870    5.2000 c3        1 LOP     -0.076400
     27 C18        13.2040  -15.5240    4.2910 c3        1 LOP     -0.079400
     28 C19        14.2570  -16.6100    4.2530 c3        1 LOP     -0.078400
     29 C20        13.8420  -17.7470    3.3440 c3        1 LOP     -0.079400
     30 C21        14.8950  -18.8340    3.3060 c3        1 LOP     -0.079400
     31 C22        14.4800  -19.9710    2.3970 c3        1 LOP     -0.080400
     32 C23        15.5250  -21.0560    2.3560 c3        1 LOP     -0.092100
     33 C24        -0.7800   -4.0520    4.5130 c         1 LOP      0.653100
     34 O8         -1.2440   -3.6740    5.5920 o         1 LOP     -0.559000
     35 C25        -1.4600   -4.2320    3.1950 c3        1 LOP     -0.149400
     36 C26        -2.9650   -4.2530    3.3400 c3        1 LOP     -0.074400
     37 C27        -3.6320   -4.2920    1.9810 c3        1 LOP     -0.080400
     38 C28        -5.1390   -4.3360    2.1140 c3        1 LOP     -0.078400
     39 C29        -5.8090   -4.3720    0.7570 c3        1 LOP     -0.079400
     40 C30        -7.3160   -4.4170    0.8880 c3        1 LOP     -0.078400
     41 C31        -7.9860   -4.4540   -0.4690 c3        1 LOP     -0.079400
     42 C32        -9.4930   -4.4980   -0.3380 c3        1 LOP     -0.078400
     43 C33       -10.1630   -4.5350   -1.6940 c3        1 LOP     -0.079400
     44 C34       -11.6700   -4.5800   -1.5650 c3        1 LOP     -0.080400
     45 C35       -12.3410   -4.6170   -2.9140 c3        1 LOP     -0.092100
     46 HN11       -1.5610    0.2620    3.6250 hn        1 LOP      0.361800
     47 HN12       -1.4230    1.2890    2.3910 hn        1 LOP      0.361800
     48 H11        -2.5090   -1.4350    2.3950 h1        1 LOP      0.027200
     49 H12        -2.8220   -0.2500    1.0450 h1        1 LOP      0.027200
     50 H21        -1.0650   -1.7600    0.3760 h1        1 LOP      0.014700
     51 H22        -0.3240   -0.1010    0.6200 h1        1 LOP      0.014700
     52 H31         1.8650   -3.2630    2.7510 h1        1 LOP      0.051200
     53 H32         3.5180   -2.4950    2.9340 h1        1 LOP      0.051200
     54 H4          3.3240   -2.7860    5.4840 h1        1 LOP      0.080700
     55 H51         1.5760   -4.5540    6.2410 h1        1 LOP      0.068200
     56 H52         0.9410   -2.8620    5.8710 h1        1 LOP      0.068200
     57 H71         4.2310   -7.3140    5.0820 hc        1 LOP      0.075200
     58 H72         5.0300   -6.3540    3.7680 hc        1 LOP      0.075200
     59 H81         6.0910   -6.5900    6.6770 hc        1 LOP      0.056700
     60 H82         6.9100   -5.7570    5.3000 hc        1 LOP      0.056700
     61 H91         7.0080   -7.9400    4.0360 hc        1 LOP      0.039200
     62 H92         6.2090   -8.7750    5.4240 hc        1 LOP      0.039200
     63 H101        8.8990   -7.2420    5.5440 hc        1 LOP      0.042200
     64 H102        8.0990   -8.0710    6.9340 hc        1 LOP      0.042200
     65 H111        8.2000  -10.2580    5.6860 hc        1 LOP      0.038700
     66 H112        9.0020   -9.4280    4.2970 hc        1 LOP      0.038700
     67 H121       10.0910   -9.5590    7.1960 hc        1 LOP      0.042200
     68 H122       10.8930   -8.7280    5.8080 hc        1 LOP      0.042200
     69 H131       10.1830  -11.7450    5.9380 hc        1 LOP      0.047200
     70 H132       10.9870  -10.9150    4.5540 hc        1 LOP      0.047200
     71 H14        12.5230  -10.2880    6.9860 ha        1 LOP      0.122000
     72 H15        13.9200  -12.2680    6.6280 ha        1 LOP      0.119000
     73 H161       12.3880  -12.9150    4.1940 hc        1 LOP      0.047700
     74 H162       11.5890  -13.7370    5.5860 hc        1 LOP      0.047700
     75 H171       13.7920  -14.7790    6.2370 hc        1 LOP      0.040200
     76 H172       14.5920  -13.9560    4.8440 hc        1 LOP      0.040200
     77 H181       13.0320  -15.1310    3.2540 hc        1 LOP      0.040200
     78 H182       12.2320  -15.9540    4.6470 hc        1 LOP      0.040200
     79 H191       14.4300  -17.0030    5.2900 hc        1 LOP      0.038700
     80 H192       15.2300  -16.1800    3.8970 hc        1 LOP      0.038700
     81 H201       13.6690  -17.3540    2.3070 hc        1 LOP      0.039700
     82 H202       12.8690  -18.1770    3.7000 hc        1 LOP      0.039700
     83 H211       15.0670  -19.2260    4.3430 hc        1 LOP      0.038700
     84 H212       15.8670  -18.4030    2.9500 hc        1 LOP      0.038700
     85 H221       13.5060  -20.3990    2.7540 hc        1 LOP      0.038700
     86 H222       14.3060  -19.5760    1.3610 hc        1 LOP      0.038700
     87 H231       15.6940  -21.4790    3.3760 hc        1 LOP      0.031367
     88 H232       15.2000  -21.8830    1.6800 hc        1 LOP      0.031367
     89 H233       16.4970  -20.6540    1.9790 hc        1 LOP      0.031367
     90 H251       -1.1320   -3.3600    2.5500 hc        1 LOP      0.101700
     91 H252       -1.0900   -5.1710    2.7090 hc        1 LOP      0.101700
     92 H261       -3.2770   -5.1440    3.9450 hc        1 LOP      0.050200
     93 H262       -3.2960   -3.3390    3.9020 hc        1 LOP      0.050200
     94 H271       -3.2770   -5.1900    1.4110 hc        1 LOP      0.043200
     95 H272       -3.3310   -3.3840    1.3930 hc        1 LOP      0.043200
     96 H281       -5.4920   -3.4360    2.6840 hc        1 LOP      0.039200
     97 H282       -5.4400   -5.2400    2.7060 hc        1 LOP      0.039200
     98 H291       -5.5090   -3.4660    0.1670 hc        1 LOP      0.040200
     99 H292       -5.4540   -5.2710    0.1860 hc        1 LOP      0.040200
    100 H301       -7.6160   -5.3220    1.4800 hc        1 LOP      0.038200
    101 H302       -7.6700   -3.5180    1.4580 hc        1 LOP      0.038200
    102 H311       -7.6860   -3.5480   -1.0600 hc        1 LOP      0.039200
    103 H312       -7.6310   -5.3520   -1.0390 hc        1 LOP      0.039200
    104 H321       -9.8470   -3.5990    0.2320 hc        1 LOP      0.038200
    105 H322       -9.7920   -5.4040    0.2540 hc        1 LOP      0.038200
    106 H331       -9.8080   -5.4340   -2.2650 hc        1 LOP      0.039200
    107 H332       -9.8640   -3.6300   -2.2860 hc        1 LOP      0.039200
    108 H341      -11.9670   -5.4850   -0.9720 hc        1 LOP      0.037700
    109 H342      -12.0230   -3.6810   -0.9930 hc        1 LOP      0.037700
    110 H351      -12.0760   -3.7100   -3.5100 hc        1 LOP      0.030367
    111 H352      -12.0210   -5.5190   -3.4890 hc        1 LOP      0.030367
    112 H353      -13.4510   -4.6490   -2.7960 hc        1 LOP      0.030367
@<TRIPOS>BOND
     1    1    2 1
     2    1   46 1
     3    1   47 1
     4    2    3 1
     5    2   48 1
     6    2   49 1
     7    3    4 1
     8    3   50 1
     9    3   51 1
    10    4    5 1
    11    5    6 1
    12    5    7 1
    13    5    8 1
    14    6    9 1
    15    9   10 1
    16    9   52 1
    17    9   53 1
    18   10   11 1
    19   10   12 1
    20   10   54 1
    21   11   13 1
    22   11   55 1
    23   11   56 1
    24   12   14 1
    25   13   33 1
    26   14   15 2
    27   14   16 1
    28   16   17 1
    29   16   57 1
    30   16   58 1
    31   17   18 1
    32   17   59 1
    33   17   60 1
    34   18   19 1
    35   18   61 1
    36   18   62 1
    37   19   20 1
    38   19   63 1
    39   19   64 1
    40   20   21 1
    41   20   65 1
    42   20   66 1
    43   21   22 1
    44   21   67 1
    45   21   68 1
    46   22   23 1
    47   22   69 1
    48   22   70 1
    49   23   24 2
    50   23   71 1
    51   24   25 1
    52   24   72 1
    53   25   26 1
    54   25   73 1
    55   25   74 1
    56   26   27 1
    57   26   75 1
    58   26   76 1
    59   27   28 1
    60   27   77 1
    61   27   78 1
    62   28   29 1
    63   28   79 1
    64   28   80 1
    65   29   30 1
    66   29   81 1
    67   29   82 1
    68   30   31 1
    69   30   83 1
    70   30   84 1
    71   31   32 1
    72   31   85 1
    73   31   86 1
    74   32   87 1
    75   32   88 1
    76   32   89 1
    77   33   34 2
    78   33   35 1
    79   35   36 1
    80   35   90 1
    81   35   91 1
    82   36   37 1
    83   36   92 1
    84   36   93 1
    85   37   38 1
    86   37   94 1
    87   37   95 1
    88   38   39 1
    89   38   96 1
    90   38   97 1
    91   39   40 1
    92   39   98 1
    93   39   99 1
    94   40   41 1
    95   40  100 1
    96   40  101 1
    97   41   42 1
    98   41  102 1
    99   41  103 1
   100   42   43 1
   101   42  104 1
   102   42  105 1
   103   43   44 1
   104   43  106 1
   105   43  107 1
   106   44   45 1
   107   44  108 1
   108   44  109 1
   109   45  110 1
   110   45  111 1
   111   45  112 1
@<TRIPOS>SUBSTRUCTURE
     1 LOP         1 TEMP              0 ****  ****    0 ROOT
