@<TRIPOS>MOLECULE
LOR
   42    43     1     0     0
SMALL
bcc


@<TRIPOS>ATOM
      1 Cl           0.0000     0.0000     0.0000 cl         1 LOR      -0.068400
      2 C1           6.2630     2.6300     0.6660 c          1 LOR       0.661900
      3 O1           6.8900     3.4470     1.2970 o          1 LOR      -0.582100
      4 C2           5.4940     1.5500     1.3830 c3         1 LOR      -0.120300
      5 N2           5.6700     1.7050     2.8300 ns         1 LOR      -0.015900
      6 C3           4.0090     1.6660     1.0350 c3         1 LOR       0.119500
      7 C4           3.8150     1.3810    -0.4550 c3         1 LOR      -0.057400
      8 C5           2.3130     1.2440    -0.7320 c3         1 LOR      -0.041400
      9 C6           1.8030     0.0000     0.0000 c3         1 LOR      -0.039600
     10 C7           2.3020     0.0000     1.4160 ce         1 LOR       0.386300
     11 C8           1.6350    -0.9040     2.3820 c          1 LOR       0.873300
     12 N8           3.2510     0.7160     1.8390 n2         1 LOR      -0.547900
     13 C21          6.7430     1.1650     3.4390 c          1 LOR       0.553100
     14 O21          7.5640     0.5510     2.7910 o          1 LOR      -0.688100
     15 C22          6.9250     1.3250     4.9270 c3         1 LOR      -0.063200
     16 N22          8.3330     1.0950     5.2760 nz         1 LOR       0.074400
     17 C23          6.0590     0.3240     5.6470 ca         1 LOR      -0.192300
     18 C24          6.4790    -0.9870     5.7770 ca         1 LOR      -0.076000
     19 C25          5.6850    -1.9050     6.4380 ca         1 LOR      -0.051500
     20 C26          4.4710    -1.5130     6.9700 ca         1 LOR      -0.030000
     21 C27          4.0510    -0.2020     6.8420 ca         1 LOR      -0.051500
     22 C28          4.8480     0.7170     6.1850 ca         1 LOR      -0.076000
     23 O81          2.0460    -0.9410     3.6640 o          1 LOR      -0.857300
     24 O82          0.7170    -1.6120     2.0190 o          1 LOR      -0.857300
     25 H1           6.2890     2.6470    -0.4170 h4         1 LOR      -0.020800
     26 H2           5.8630     0.5790     1.0760 h1         1 LOR       0.089700
     27 HN2          5.0180     2.2510     3.3570 hn         1 LOR       0.187500
     28 H3           3.6630     2.6690     1.2520 h1         1 LOR       0.032700
     29 H4           4.3180     0.4570    -0.7170 hc         1 LOR       0.018700
     30 H4A          4.2190     2.2000    -1.0380 hc         1 LOR       0.018700
     31 H5           2.1470     1.1340    -1.7970 hc         1 LOR       0.026200
     32 H5A          1.7930     2.1210    -0.3640 hc         1 LOR       0.026200
     33 H6           2.1670    -0.8860    -0.5070 h1         1 LOR       0.050700
     34 H22          6.6380     2.3270     5.2210 hx         1 LOR       0.082700
     35 HN22         8.4210     1.0070     6.2690 hn         1 LOR       0.227467
     36 HN2A         8.6520     0.2540     4.8370 hn         1 LOR       0.227467
     37 H24          7.4300    -1.2950     5.3600 ha         1 LOR       0.096500
     38 H25          6.0140    -2.9330     6.5390 ha         1 LOR       0.119500
     39 H26          3.8470    -2.2330     7.4870 ha         1 LOR       0.119000
     40 H27          3.1010     0.1060     7.2610 ha         1 LOR       0.119500
     41 H28          4.5190     1.7450     6.0840 ha         1 LOR       0.096500
     42 H223         8.8950     1.8310     4.8960 hn         1 LOR       0.227467
@<TRIPOS>BOND
     1     1     9 1   
     2     2     3 2   
     3     2     4 1   
     4     2    25 1   
     5     4     5 1   
     6     4     6 1   
     7     4    26 1   
     8     5    13 1   
     9     5    27 1   
    10     6     7 1   
    11     6    12 1   
    12     6    28 1   
    13     7     8 1   
    14     7    29 1   
    15     7    30 1   
    16     8     9 1   
    17     8    31 1   
    18     8    32 1   
    19     9    10 1   
    20     9    33 1   
    21    10    11 1   
    22    10    12 2   
    23    11    23 1   
    24    11    24 1   
    25    13    14 2   
    26    13    15 1   
    27    15    16 1   
    28    15    17 1   
    29    15    34 1   
    30    16    35 1   
    31    16    36 1   
    32    16    42 1   
    33    17    18 ar  
    34    17    22 ar  
    35    18    19 ar  
    36    18    37 1   
    37    19    20 ar  
    38    19    38 1   
    39    20    21 ar  
    40    20    39 1   
    41    21    22 ar  
    42    21    40 1   
    43    22    41 1   
@<TRIPOS>SUBSTRUCTURE
     1 LOR         1 TEMP              0 ****  ****    0 ROOT
