@<TRIPOS>MOLECULE
LOZ
   54    55     1     0     0
SMALL
bcc


@<TRIPOS>ATOM
      1 C27        -2.9000   -0.3280    2.2680 c3        1 LOZ     -0.195000
      2 C29        -2.7750    0.7500    1.2730 c2        1 LOZ      0.004000
      3 C25        -1.7830   -0.3960    3.2030 c2        1 LOZ      0.097000
      4 C31        -1.6930    1.5800    1.2210 c2        1 LOZ     -0.209000
      5 C7          6.4520   -1.6880    6.0860 ca        1 LOZ     -0.065000
      6 C9          7.7170   -1.3130    5.5800 ca        1 LOZ     -0.013000
      7 C5          5.4480   -0.3140    4.3320 ca        1 LOZ     -0.223000
      8 C24        -0.6890    0.4570    3.1260 c2        1 LOZ     -0.165000
      9 C23        -0.6070    1.4550    2.1390 c2        1 LOZ      0.212000
     10 C6          5.3380   -1.1920    5.4600 ca        1 LOZ     -0.158000
     11 C11         7.8540   -0.4730    4.4790 ca        1 LOZ     -0.225000
     12 C17         6.6920    0.0550    3.8390 ca        1 LOZ      0.211000
     13 C33         0.3440    0.1050    4.1450 c3        1 LOZ     -0.154000
     14 C13         9.2150   -0.1670    3.9890 c2        1 LOZ      0.213000
     15 C21         0.5630    2.3360    2.0450 c3        1 LOZ     -0.253000
     16 C36        -0.1630   -1.1800    4.7850 c2        1 LOZ     -0.037000
     17 C18         3.8760   -1.3890    5.7390 c1        1 LOZ      0.167000
     18 C42         3.1890   -5.2790    4.0990 c3        1 LOZ     -0.214000
     19 C45         2.6740   -4.6840    5.3760 c3        1 LOZ     -0.214000
     20 C48        -2.4490   -3.6760    4.6270 c3        1 LOZ      0.066000
     21 N38         0.4280   -1.9810    5.5770 n2        1 LOZ     -0.201000
     22 N51        -1.6630   -4.1570    5.7030 n3        1 LOZ     -0.365000
     23 O3          3.5000    0.6960    3.0870 o         1 LOZ     -0.256000
     24 O1          3.2040   -0.6780    4.8410 os        1 LOZ     -0.233000
     25 O41        -1.8240   -2.6930    3.7500 os        1 LOZ     -0.320000
     26 O12        10.2210   -0.3710    4.6670 o         1 LOZ     -0.238000
     27 O16         6.7100    0.9050    2.7730 oh        1 LOZ     -0.222000
     28 H27        -2.9720   -1.3380    1.7380 hc        1 LOZ      0.214000
     29 H29        -1.6330    2.3720    0.4520 ha        1 LOZ      0.184000
     30 H25        -3.8840   -0.2310    2.8240 hc        1 LOZ      0.214000
     31 H31        -3.6070    0.8580    0.5520 ha        1 LOZ      0.179000
     32 H7          6.3770   -2.3570    6.9580 ha        1 LOZ      0.178000
     33 H9          8.6320   -1.6960    6.0700 ha        1 LOZ      0.181000
     34 H331        0.4470    0.9110    4.9180 hc        1 LOZ      0.144500
     35 H332        1.3520   -0.0440    3.6700 hc        1 LOZ      0.144500
     36 H21         0.5330    3.0870    2.8830 hc        1 LOZ      0.146667
     37 H181        1.5160    1.7470    2.1670 hc        1 LOZ      0.146667
     38 H182        0.5960    2.8910    1.0740 hc        1 LOZ      0.146667
     39 H421        4.3060   -5.2700    4.0800 hc        1 LOZ      0.071667
     40 H422        2.8190   -4.7060    3.2150 hc        1 LOZ      0.071667
     41 H38        -3.4120   -3.2400    5.0150 h2        1 LOZ      0.112500
     42 H36         1.3750   -1.7700    5.8330 hn        1 LOZ      0.200000
     43 H131        9.2870    0.2370    2.9550 h4        1 LOZ      0.098000
     44 H132        7.6250    1.1490    2.5620 ho        1 LOZ      0.243000
     45 H451        3.0110   -3.6220    5.4880 hc        1 LOZ      0.071667
     46 H452        2.8490   -6.3390    3.9930 hc        1 LOZ      0.071667
     47 H481        1.5560   -4.6960    5.3960 hc        1 LOZ      0.071667
     48 H482        3.0440   -5.2600    6.2580 hc        1 LOZ      0.071667
     49 H511       -1.5360   -3.4960    6.4400 hn        1 LOZ      0.181500
     50 H512       -2.6480   -4.5100    3.8900 h2        1 LOZ      0.112500
     51 C40        -1.6140   -1.4180    4.3050 c3        1 LOZ      0.070000
     52 H382       -2.3290   -1.2020    5.1500 h1        1 LOZ      0.135000
     53 H513       -0.7880   -4.5440    5.4180 hn        1 LOZ      0.181500
     54 C2          4.0860    0.0300    3.9200 c2        1 LOZ      0.347000
@<TRIPOS>BOND
     1    1    2 1   
     2    1    3 1   
     3    1   28 1   
     4    1   30 1   
     5    2    4 1   
     6    2   31 1   
     7    3    8 1   
     8    3   51 1   
     9    4    9 1   
    10    4   29 1   
    11    5    6 1   
    12    5   10 1   
    13    5   32 1   
    14    6   11 1   
    15    6   33 1   
    16    7   10 1   
    17    7   12 1   
    18    7   54 1   
    19    8    9 1   
    20    8   13 1   
    21    9   15 1   
    22   10   17 1   
    23   11   12 1   
    24   11   14 1   
    25   12   27 1   
    26   13   16 1   
    27   13   34 1   
    28   13   35 1   
    29   14   26 1   
    30   14   43 1   
    31   15   36 1   
    32   15   37 1   
    33   15   38 1   
    34   16   21 1   
    35   16   51 1   
    36   17   24 1   
    37   18   19 1   
    38   18   39 1   
    39   18   40 1   
    40   18   46 1   
    41   19   45 1   
    42   19   47 1   
    43   19   48 1   
    44   20   22 1   
    45   20   25 1   
    46   20   41 1   
    47   20   50 1   
    48   21   42 1   
    49   22   49 1   
    50   22   53 1   
    51   23   54 1   
    52   24   54 1   
    53   25   51 1   
    54   27   44 1   
    55   51   52 1   
@<TRIPOS>SUBSTRUCTURE
     1 LOZ         1 TEMP              0 ****  ****    0 ROOT
