@<TRIPOS>MOLECULE
molecule
   53    56     1     0     0
SMALL
bcc


@<TRIPOS>ATOM
      1 C27          0.0000     0.0000     0.0000 ca         1 LOZ      -0.139000
      2 C29          1.3820     0.0000     0.0000 ca         1 LOZ      -0.083000
      3 C25         -0.6900    -0.0000     1.1970 ca         1 LOZ      -0.117000
      4 C31          2.0710     0.0000     1.1980 ca         1 LOZ      -0.189000
      5 C7           4.5890    -1.1200     2.0110 ca         1 LOZ      -0.062000
      6 C9           5.6820    -0.6730     1.2880 ca         1 LOZ      -0.153000
      7 C5           4.9880     0.5750     3.6680 ca         1 LOZ      -0.040600
      8 C24         -0.0010    -0.0010     2.3980 ca         1 LOZ      -0.123300
      9 C23          1.3810    -0.0020     2.3990 ca         1 LOZ      -0.117300
     10 C6           4.2380    -0.5050     3.1930 ca         1 LOZ      -0.077300
     11 C11          6.4350     0.3950     1.7440 ca         1 LOZ       0.027100
     12 C17          6.0930     1.0260     2.9380 ca         1 LOZ      -0.122900
     13 C33         -0.5130    -0.0020     3.8220 c3         1 LOZ      -0.047100
     14 C13          7.6200     2.2800     1.9020 c3         1 LOZ      -0.116800
     15 C21          1.8930    -0.0020     3.8230 c3         1 LOZ       0.003600
     16 C36          0.6890    -0.4430     4.6840 c3         1 LOZ       0.114700
     17 C18          3.0460    -0.9960     3.9730 c3         1 LOZ      -0.278100
     18 C42         -0.0140    -3.9380     6.0790 c3         1 LOZ      -0.157400
     19 C45         -0.8830    -4.2950     7.2870 c3         1 LOZ      -0.095400
     20 C48         -0.8830    -5.8110     7.4850 c3         1 LOZ       0.084800
     21 N38          0.6900    -1.8960     4.8740 ns         1 LOZ      -0.541900
     22 N51         -1.7180    -6.1540     8.6440 nz         1 LOZ      -0.811600
     23 O3           3.7570     2.2750     4.9220 o          1 LOZ      -0.807800
     24 O1           5.0820     0.8440     5.9830 o          1 LOZ      -0.807800
     25 O41         -0.6470    -1.7340     6.6370 o          1 LOZ      -0.625100
     26 O12          7.5370     1.0120     1.2260 os         1 LOZ      -0.292900
     27 O16          6.9770     2.0360     3.1670 os         1 LOZ      -0.134900
     28 H27         -0.5270     0.0780    -0.9430 ha         1 LOZ       0.127000
     29 H29          1.9210     0.1140    -0.9330 ha         1 LOZ       0.132000
     30 H25         -1.7720     0.0270     1.1920 ha         1 LOZ       0.119000
     31 H31          2.5600     0.6850     1.8810 ha         1 LOZ       0.234000
     32 H7           4.0050    -1.9580     1.6510 ha         1 LOZ       0.137000
     33 H9           5.9450    -1.1650     0.3590 ha         1 LOZ       0.136000
     34 H331        -1.3200    -0.7160     3.9270 hc         1 LOZ       0.063200
     35 H332        -0.7650     1.0170     4.0920 hc         1 LOZ       0.063200
     36 H21          2.2100     0.9940     4.1100 hc         1 LOZ       0.133700
     37 H181         3.1400    -1.6150     4.8580 hc         1 LOZ       0.139200
     38 H182         3.0990    -0.0000     4.3950 hc         1 LOZ       0.139200
     39 H421         1.0000    -4.2800     6.2490 hc         1 LOZ       0.072700
     40 H422        -0.4390    -4.4020     5.1970 hc         1 LOZ       0.072700
     41 H38          1.1810    -2.4790     4.2260 hn         1 LOZ       0.338500
     42 H36          0.6860     0.0720     5.6370 h1         1 LOZ       0.104700
     43 H131         7.3090     3.1520     1.3380 h2         1 LOZ       0.217200
     44 H132         6.6750     1.9090     2.2810 h2         1 LOZ       0.217200
     45 H451        -1.8990    -3.9900     7.0640 hc         1 LOZ       0.081700
     46 H452        -0.5520    -3.7810     8.1810 hc         1 LOZ       0.081700
     47 H481         0.1290    -6.1680     7.6340 hx         1 LOZ       0.108200
     48 H482        -1.2980    -6.2770     6.6000 hx         1 LOZ       0.108200
     49 H511        -2.1450    -7.0460     8.4870 hn         1 LOZ       0.456133
     50 H512        -1.1500    -6.2550     9.4620 hn         1 LOZ       0.456133
     51 C40         -0.0140    -2.4430     5.8840 c          1 LOZ       0.655100
     52 H513        -2.4010    -5.4340     8.7740 hn         1 LOZ       0.456133
     53 C2           4.6150     1.2360     4.9320 c          1 LOZ       0.862200
@<TRIPOS>BOND
     1     1     2 ar
     2     1     3 ar
     3     2     4 ar
     4     3     8 ar
     5     4     9 ar
     6     5     6 ar
     7     5    10 ar
     8     6    11 ar
     9     7    10 ar
    10     7    12 ar
    11     7    53 1
    12     8     9 ar
    13     8    13 1
    14     9    15 1
    15    10    17 1
    16    11    12 ar
    17    11    26 1
    18    12    27 1
    19    53    23 1
    20    53    24 1
    21    51    18 1
    22    51    21 1
    23    51    25 2
    24    13    16 1
    25    14    26 1
    26    14    27 1
    27    15    16 1
    28    15    17 1
    29    16    21 1
    30    18    19 1
    31    19    20 1
    32    20    22 1
    33     1    28 1
    34     2    29 1
    35     3    30 1
    36     4    31 1
    37     5    32 1
    38     6    33 1
    39    13    34 1
    40    13    35 1
    41    15    36 1
    42    17    37 1
    43    17    38 1
    44    18    39 1
    45    18    40 1
    46    21    41 1
    47    16    42 1
    48    14    43 1
    49    14    44 1
    50    19    45 1
    51    19    46 1
    52    20    47 1
    53    20    48 1
    54    22    49 1
    55    22    50 1
    56    52    22 1
@<TRIPOS>SUBSTRUCTURE
     1 LOZ         1 TEMP              0 ****  ****    0 ROOT
