@<TRIPOS>MOLECULE
molecule
   89    88     1     0     0
SMALL
bcc


@<TRIPOS>ATOM
      1 C1           0.0000     0.0000     0.0000 c3         1 LP3       0.146400
      2 C2           1.5300     0.0000     0.0000 c3         1 LP3       0.146100
      3 C3           2.0400     0.0000     1.4420 c3         1 LP3       0.141400
      4 C4          -4.1100     0.4710    -2.5850 c3         1 LP3       0.132400
      5 C5          -4.7500     0.7200    -3.9520 c3         1 LP3       0.100800
      6 C6          -5.0800    -1.6510    -4.1110 c3         1 LP3       0.097433
      7 C7          -5.2930    -0.2760    -6.0650 c3         1 LP3       0.097433
      8 C8          -3.1340    -0.6420    -5.0860 c3         1 LP3       0.097433
      9 C11          4.1570     0.1420     2.6070 c          1 LP3       0.636100
     10 C12          5.6590     0.2660     2.6080 c3         1 LP3      -0.125400
     11 C13          6.1690     0.2660     4.0510 c3         1 LP3      -0.072400
     12 C14          7.6940     0.3920     4.0530 c3         1 LP3      -0.084400
     13 C15          8.2040     0.3930     5.4950 c3         1 LP3      -0.080400
     14 C16          9.7290     0.5190     5.4970 c3         1 LP3      -0.082400
     15 C17         10.2380     0.5190     6.9400 c3         1 LP3      -0.081400
     16 C18         11.7630     0.6460     6.9420 c3         1 LP3      -0.082400
     17 C19         12.2730     0.6460     8.3840 c3         1 LP3      -0.082400
     18 C20         13.7980     0.7720     8.3850 c3         1 LP3      -0.082400
     19 C21         14.3080     0.7720     9.8280 c3         1 LP3      -0.082400
     20 C22         15.8330     0.8980     9.8300 c3         1 LP3      -0.082400
     21 C23         16.3430     0.8980    11.2730 c3         1 LP3      -0.081400
     22 C24         17.8670     1.0240    11.2750 c3         1 LP3      -0.082400
     23 C25         18.3780     1.0250    12.7170 c3         1 LP3      -0.082400
     24 C26         19.9020     1.1510    12.7180 c3         1 LP3      -0.081400
     25 C27         20.4130     1.1520    14.1610 c3         1 LP3      -0.084400
     26 C28         21.9380     1.2780    14.1630 c3         1 LP3      -0.092100
     27 N           -4.5650    -0.4620    -4.8040 n4         1 LP3      -0.569800
     28 O2           2.0060    -1.1660    -0.6740 oh         1 LP3      -0.593800
     29 O3           3.4870     0.1200     1.4440 os         1 LP3      -0.442900
     30 O11          3.5560     0.0620     3.6520 o          1 LP3      -0.552000
     31 O1P         -2.5910    -1.3180    -0.7240 o          1 LP3      -0.797000
     32 O2P         -2.5410     1.1770    -0.3480 o          1 LP3      -0.797000
     33 O3P         -0.4770     0.1170    -1.3420 os         1 LP3      -0.545200
     34 O4P         -2.6920     0.3710    -2.7360 os         1 LP3      -0.560200
     35 P           -2.0850     0.1100    -1.2670 p5         1 LP3       1.260800
     36 H11         -0.3610    -0.9260     0.4320 h1         1 LP3       0.071200
     37 H12         -0.3610     0.8370     0.5860 h1         1 LP3       0.071200
     38 H2           1.8910     0.8850    -0.5100 h1         1 LP3       0.043700
     39 H31          1.7530    -0.9260     1.9260 h1         1 LP3       0.061200
     40 H32          1.6070     0.8360     1.9780 h1         1 LP3       0.061200
     41 H41         -4.3450     1.2930    -1.9200 h1         1 LP3       0.094200
     42 H42         -4.4940    -0.4520    -2.1680 h1         1 LP3       0.094200
     43 H51         -4.2830     1.5780    -4.4180 hx         1 LP3       0.092200
     44 H52         -5.8090     0.9100    -3.8250 hx         1 LP3       0.092200
     45 H61         -5.9340    -1.3730    -3.5040 hx         1 LP3       0.095589
     46 H62         -4.3050    -2.0630    -3.4770 hx         1 LP3       0.095589
     47 H63         -5.3820    -2.3920    -4.8410 hx         1 LP3       0.095589
     48 H71         -4.9590     0.6360    -6.5440 hx         1 LP3       0.095589
     49 H72         -5.1030    -1.1180    -6.7200 hx         1 LP3       0.095589
     50 H73         -6.3560    -0.2090    -5.8620 hx         1 LP3       0.095589
     51 H81         -2.6510     0.3260    -5.1400 hx         1 LP3       0.095589
     52 H82         -2.6810    -1.2280    -4.2950 hx         1 LP3       0.095589
     53 H83         -3.0140    -1.1580    -6.0310 hx         1 LP3       0.095589
     54 H121         6.0910    -0.5710     2.0730 hc         1 LP3       0.069200
     55 H122         5.9460     1.1910     2.1240 hc         1 LP3       0.069200
     56 H131         5.8830    -0.6600     4.5350 hc         1 LP3       0.059200
     57 H132         5.7370     1.1020     4.5870 hc         1 LP3       0.059200
     58 H141         8.1260    -0.4450     3.5170 hc         1 LP3       0.039200
     59 H142         7.9800     1.3180     3.5680 hc         1 LP3       0.039200
     60 H151         7.7710     1.2300     6.0300 hc         1 LP3       0.044200
     61 H152         7.9170    -0.5320     5.9800 hc         1 LP3       0.044200
     62 H161        10.1610    -0.3170     4.9620 hc         1 LP3       0.040200
     63 H162        10.0150     1.4450     5.0130 hc         1 LP3       0.040200
     64 H171         9.8060     1.3560     7.4750 hc         1 LP3       0.041700
     65 H172         9.9520    -0.4060     7.4240 hc         1 LP3       0.041700
     66 H181        12.0490     1.5720     6.4580 hc         1 LP3       0.040700
     67 H182        12.1950    -0.1910     6.4060 hc         1 LP3       0.040700
     68 H191        11.8410     1.4820     8.9200 hc         1 LP3       0.041700
     69 H192        11.9870    -0.2800     8.8690 hc         1 LP3       0.041700
     70 H201        14.0840     1.6980     7.9010 hc         1 LP3       0.040700
     71 H202        14.2300    -0.0650     7.8500 hc         1 LP3       0.040700
     72 H211        13.8760     1.6080    10.3640 hc         1 LP3       0.040700
     73 H212        14.0220    -0.1540    10.3120 hc         1 LP3       0.040700
     74 H221        16.2650     0.0620     9.2940 hc         1 LP3       0.040700
     75 H222        16.1190     1.8240     9.3460 hc         1 LP3       0.040700
     76 H231        15.9110     1.7350    11.8090 hc         1 LP3       0.040700
     77 H232        16.0570    -0.0280    11.7570 hc         1 LP3       0.040700
     78 H241        18.3000     0.1880    10.7390 hc         1 LP3       0.040700
     79 H242        18.1540     1.9500    10.7900 hc         1 LP3       0.040700
     80 H251        18.0910     0.1000    13.2020 hc         1 LP3       0.040700
     81 H252        17.9460     1.8630    13.2520 hc         1 LP3       0.040700
     82 H261        20.3340     0.3130    12.1830 hc         1 LP3       0.040700
     83 H262        20.1890     2.0760    12.2330 hc         1 LP3       0.040700
     84 H271        20.1260     0.2260    14.6460 hc         1 LP3       0.039700
     85 H272        19.9800     1.9880    14.6960 hc         1 LP3       0.039700
     86 H281        22.2980     1.2790    15.1840 hc         1 LP3       0.032367
     87 H282        22.2240     2.2030    13.6780 hc         1 LP3       0.032367
     88 H283        22.3700     0.4410    13.6280 hc         1 LP3       0.032367
     89 HO2          2.5160    -0.9100    -1.4250 ho         1 LP3       0.400000
@<TRIPOS>BOND
     1     1     2 1
     2     1    33 1
     3     1    36 1
     4     1    37 1
     5     2     3 1
     6     2    28 1
     7     2    38 1
     8     3    29 1
     9     3    39 1
    10     3    40 1
    11     4     5 1
    12     4    34 1
    13     4    41 1
    14     4    42 1
    15     5    27 1
    16     5    43 1
    17     5    44 1
    18     6    27 1
    19     6    45 1
    20     6    46 1
    21     6    47 1
    22     7    27 1
    23     7    48 1
    24     7    49 1
    25     7    50 1
    26     8    27 1
    27     8    51 1
    28     8    52 1
    29     8    53 1
    30     9    10 1
    31     9    29 1
    32     9    30 2
    33    10    11 1
    34    10    54 1
    35    10    55 1
    36    11    12 1
    37    11    56 1
    38    11    57 1
    39    12    13 1
    40    12    58 1
    41    12    59 1
    42    13    14 1
    43    13    60 1
    44    13    61 1
    45    14    15 1
    46    14    62 1
    47    14    63 1
    48    15    16 1
    49    15    64 1
    50    15    65 1
    51    16    17 1
    52    16    66 1
    53    16    67 1
    54    17    18 1
    55    17    68 1
    56    17    69 1
    57    18    19 1
    58    18    70 1
    59    18    71 1
    60    19    20 1
    61    19    72 1
    62    19    73 1
    63    20    21 1
    64    20    74 1
    65    20    75 1
    66    21    22 1
    67    21    76 1
    68    21    77 1
    69    22    23 1
    70    22    78 1
    71    22    79 1
    72    23    24 1
    73    23    80 1
    74    23    81 1
    75    24    25 1
    76    24    82 1
    77    24    83 1
    78    25    26 1
    79    25    84 1
    80    25    85 1
    81    26    86 1
    82    26    87 1
    83    26    88 1
    84    28    89 1
    85    31    35 1
    86    32    35 1
    87    33    35 1
    88    34    35 1
@<TRIPOS>SUBSTRUCTURE
     1 LP3         1 TEMP              0 ****  ****    0 ROOT
