@<TRIPOS>MOLECULE
LP7
   30    31     1     0     0
SMALL
bcc


@<TRIPOS>ATOM
      1 C            0.0000     0.0000     0.0000 ca         1 LP7      -0.252300
      2 N            2.0590     0.0000     1.1310 nb         1 LP7      -0.597000
      3 O           -0.7690     1.4160     4.1360 oh         1 LP7      -0.556800
      4 C1           1.3820     0.0000     0.0000 ca         1 LP7       0.444200
      5 C2          -0.6770     0.0080     1.2130 ca         1 LP7      -0.020000
      6 C3           0.0650     0.0150     2.3800 ca         1 LP7      -0.292600
      7 C4           1.4530     0.0000     2.3080 ca         1 LP7       0.391200
      8 N5           2.2070    -0.0020     3.4790 n          1 LP7       0.087200
      9 C6           1.6400    -0.2810     4.6650 c          1 LP7       0.607500
     10 C7           0.2000    -0.7130     4.7470 c3         1 LP7      -0.173700
     11 C8          -0.6280     0.0570     3.7160 c3         1 LP7       0.277400
     12 O9           3.5900     0.2930     3.4190 oh         1 LP7      -0.420100
     13 O10          2.2960    -0.1850     5.6800 o          1 LP7      -0.622500
     14 C11         -0.3310    -0.4290     6.1280 c          1 LP7       0.722100
     15 O12         -1.2720     0.3150     6.2730 o          1 LP7      -0.574000
     16 O13          0.2410    -1.0040     7.1970 os         1 LP7      -0.389900
     17 C14         -0.3230    -0.6860     8.4980 c3         1 LP7       0.226400
     18 C15          0.4550    -1.4280     9.5870 c3         1 LP7      -0.003100
     19 H           -0.5480     0.0000    -0.9340 ha         1 LP7       0.119000
     20 H1           1.9160    -0.0060    -0.9430 h4         1 LP7      -0.016900
     21 H2          -1.7600     0.0080     1.2440 ha         1 LP7       0.110000
     22 H7           0.1310    -1.7740     4.5410 hc         1 LP7       0.066700
     23 HO9          4.0850    -0.5090     3.4650 ho         1 LP7       0.401000
     24 H14         -0.2550     0.3810     8.6700 h1         1 LP7       0.007700
     25 H14A        -1.3620    -0.9910     8.5250 h1         1 LP7       0.007700
     26 H15          1.4850    -1.0920     9.5870 hc         1 LP7       0.011367
     27 H15A         0.0080    -1.2240    10.5520 hc         1 LP7       0.011367
     28 H15B         0.4220    -2.4930     9.3920 hc         1 LP7       0.011367
     29 H11         -1.5820     1.7640     3.8090 ho         1 LP7       0.399000
     30 H12         -1.6060    -0.4010     3.6270 h1         1 LP7       0.016700
@<TRIPOS>BOND
     1     1     4 ar  
     2     1     5 ar  
     3     1    19 1   
     4     2     4 ar  
     5     2     7 ar  
     6     3    11 1   
     7     3    29 1   
     8     4    20 1   
     9     5     6 ar  
    10     5    21 1   
    11     6     7 ar  
    12     6    11 1   
    13     7     8 1   
    14     8     9 1   
    15     8    12 1   
    16     9    10 1   
    17     9    13 2   
    18    10    11 1   
    19    10    14 1   
    20    10    22 1   
    21    11    30 1   
    22    12    23 1   
    23    14    15 2   
    24    14    16 1   
    25    16    17 1   
    26    17    18 1   
    27    17    24 1   
    28    17    25 1   
    29    18    26 1   
    30    18    27 1   
    31    18    28 1   
@<TRIPOS>SUBSTRUCTURE
     1 LP7         1 TEMP              0 ****  ****    0 ROOT
