@<TRIPOS>MOLECULE
molecule
   32    34     1     0     0
SMALL
bcc


@<TRIPOS>ATOM
      1 C            0.0000     0.0000     0.0000 c          1 LP8       0.714700
      2 N            1.3430     0.0000     0.0000 n          1 LP8      -0.295800
      3 O            2.0370     0.0020    -1.2350 oh         1 LP8      -0.337100
      4 C1          -0.0990    -0.0080     2.3970 cc         1 LP8       0.178900
      5 C2          -0.7430    -0.0000     1.1920 cd         1 LP8      -0.194400
      6 O3          -0.5920     0.0070    -1.0660 o          1 LP8      -0.606500
      7 C4           2.0590     0.0000     1.1760 ca         1 LP8       0.575200
      8 C5           1.3690    -0.0020     2.4020 ca         1 LP8      -0.266100
      9 C6           2.0930    -0.0020     3.5990 ca         1 LP8      -0.037000
     10 C7           3.4720    -0.0020     3.5220 ca         1 LP8      -0.291300
     11 C8           4.0850    -0.0010     2.2790 ca         1 LP8       0.475200
     12 N9           3.3850     0.0000     1.1640 nb         1 LP8      -0.716000
     13 O10         -0.7980    -0.0100     3.5560 oh         1 LP8      -0.503100
     14 C11         -2.2480     0.0060     1.1410 c3         1 LP8      -0.008500
     15 C12         -2.7450     1.2630     0.4060 c3         1 LP8      -0.072900
     16 C13         -3.5370     0.7710    -0.8230 c3         1 LP8      -0.079400
     17 C14         -3.9830    -0.6620    -0.4390 c3         1 LP8      -0.079400
     18 C15         -2.7560    -1.2060     0.3330 c3         1 LP8      -0.072900
     19 H6           1.5870    -0.0030     4.5570 ha         1 LP8       0.151000
     20 H7           4.0700    -0.0030     4.4260 ha         1 LP8       0.147000
     21 H8           5.1670    -0.0010     2.2230 h4         1 LP8       0.032100
     22 H11         -2.6580    -0.0210     2.1430 hc         1 LP8       0.067700
     23 H12         -1.9010     1.8630     0.0860 hc         1 LP8       0.047700
     24 H12A        -3.3930     1.8390     1.0550 hc         1 LP8       0.047700
     25 H13         -2.8990     0.7450    -1.6980 hc         1 LP8       0.046450
     26 H13A        -4.4010     1.4020    -0.9940 hc         1 LP8       0.046450
     27 H14         -4.1700    -1.2540    -1.3260 hc         1 LP8       0.046450
     28 H14A        -4.8550    -0.6310     0.2020 hc         1 LP8       0.046450
     29 H15         -3.0540    -2.0060     0.9990 hc         1 LP8       0.047700
     30 H15A        -1.9940    -1.5440    -0.3600 hc         1 LP8       0.047700
     31 HO           2.2170     0.8910    -1.4930 ho         1 LP8       0.410000
     32 H151        -0.7290    -0.8570     3.9630 ho         1 LP8       0.430000
@<TRIPOS>BOND
     1     1     5 1
     2     1     6 2
     3     2     1 1
     4     3     2 1
     5     3    31 1
     6     4     5 2
     7     5    14 1
     8     7     2 1
     9     7     8 ar
    10     8     4 1
    11     9     8 ar
    12     9    19 1
    13    10     9 ar
    14    10    20 1
    15    11    10 ar
    16    11    12 ar
    17    11    21 1
    18    12     7 ar
    19    13     4 1
    20    13    32 1
    21    14    15 1
    22    14    22 1
    23    15    16 1
    24    15    23 1
    25    15    24 1
    26    16    25 1
    27    16    26 1
    28    17    16 1
    29    17    27 1
    30    17    28 1
    31    18    14 1
    32    18    17 1
    33    18    29 1
    34    18    30 1
@<TRIPOS>SUBSTRUCTURE
     1 LP8         1 TEMP              0 ****  ****    0 ROOT
