@<TRIPOS>MOLECULE
LP9
   53    55     1     0     0
SMALL
bcc


@<TRIPOS>ATOM
      1 C            0.0000     0.0000     0.0000 ca         1 LP9      -0.104000
      2 N            1.4210     0.0010     2.3630 nb         1 LP9      -0.571000
      3 O           -2.8690     0.0140     0.1780 oh         1 LP9      -0.472100
      4 C1           1.3860     0.0000     0.0000 ca         1 LP9      -0.006200
      5 C2           2.0640     0.0000     1.2150 ca         1 LP9       0.433200
      6 C3           0.0950    -0.0050     2.4230 ca         1 LP9       0.352200
      7 C4          -0.6600     0.0010     1.2360 ca         1 LP9      -0.245100
      8 N5          -0.5370    -0.0050     3.6480 n          1 LP9       0.132200
      9 C6          -1.8760    -0.0100     3.7550 c          1 LP9       0.606700
     10 C7          -2.7270     0.0080     2.5650 cc         1 LP9      -0.315400
     11 C8          -2.1230     0.0070     1.3030 cd         1 LP9       0.296900
     12 C9          -4.1870     0.0010     2.6930 c          1 LP9       0.745300
     13 O10         -4.8840    -0.1190     1.7030 o          1 LP9      -0.606000
     14 O11         -2.3900    -0.0090     4.8590 o          1 LP9      -0.641500
     15 O12          0.2470     0.0020     4.8260 oh         1 LP9      -0.425100
     16 O13          2.0740    -0.0020    -1.1720 os         1 LP9      -0.198200
     17 C14          1.3670     0.1190    -2.3280 ca         1 LP9       0.020100
     18 C15          0.6990     1.3010    -2.6120 ca         1 LP9      -0.066000
     19 C16         -0.0190     1.4240    -3.7850 ca         1 LP9      -0.182000
     20 C17         -0.0730     0.3640    -4.6800 ca         1 LP9       0.084600
     21 C18          0.5950    -0.8190    -4.3940 ca         1 LP9      -0.182000
     22 C19          1.3180    -0.9390    -3.2230 ca         1 LP9      -0.066000
     23 N20         -0.8020     0.4880    -5.8680 nh         1 LP9      -0.382000
     24 C21         -1.5070     1.7350    -6.1690 c3         1 LP9       0.167800
     25 C22         -0.5770     2.6740    -6.9410 c3         1 LP9      -0.026100
     26 C23         -0.8580    -0.6320    -6.8120 c3         1 LP9       0.167800
     27 C24         -2.0540    -1.5250    -6.4720 c3         1 LP9      -0.026100
     28 O25         -4.7580     0.1280     3.9070 os         1 LP9      -0.369900
     29 C26         -6.6700     0.2660     5.4090 c3         1 LP9      -0.002100
     30 C27         -6.2100     0.1130     3.9580 c3         1 LP9       0.219400
     31 H           -0.5570    -0.0000    -0.9290 ha         1 LP9       0.149000
     32 H2           3.1480    -0.0000     1.2160 h4         1 LP9      -0.004900
     33 HO12         0.3130    -0.8750     5.1650 ho         1 LP9       0.405000
     34 H15          0.7420     2.1280    -1.9140 ha         1 LP9       0.113500
     35 H16         -0.5400     2.3480    -4.0070 ha         1 LP9       0.124000
     36 H18          0.5560    -1.6460    -5.0930 ha         1 LP9       0.124000
     37 H19          1.8390    -1.8620    -3.0000 ha         1 LP9       0.113500
     38 H21         -1.8120     2.2100    -5.2440 h1         1 LP9       0.026200
     39 H21A        -2.3820     1.5200    -6.7700 h1         1 LP9       0.026200
     40 H22          0.4470     2.3370    -6.8330 hc         1 LP9       0.010367
     41 H22A        -0.8500     2.6710    -7.9890 hc         1 LP9       0.010367
     42 H22B        -0.6700     3.6790    -6.5470 hc         1 LP9       0.010367
     43 H23         -0.9680    -0.2500    -7.8200 h1         1 LP9       0.026200
     44 H24         -2.8080    -1.4270    -7.2440 hc         1 LP9       0.010367
     45 H24A        -1.7280    -2.5560    -6.4130 hc         1 LP9       0.010367
     46 H26         -6.2880     1.1960     5.8130 hc         1 LP9       0.010700
     47 H26A        -7.7530     0.2760     5.4460 hc         1 LP9       0.010700
     48 H27         -6.5750    -0.8260     3.5600 h1         1 LP9       0.005200
     49 H20         -3.0670    -0.8730    -0.0730 ho         1 LP9       0.429000
     50 H211         0.0550    -1.2100    -6.7420 h1         1 LP9       0.026200
     51 H221        -2.4710    -1.2220    -5.5190 hc         1 LP9       0.010367
     52 H231        -6.2960    -0.5640     5.9970 hc         1 LP9       0.010700
     53 H241        -6.6010     0.9320     3.3660 h1         1 LP9       0.005200
@<TRIPOS>BOND
     1     1     4 ar  
     2     1     7 ar  
     3     1    31 1   
     4     2     5 ar  
     5     2     6 ar  
     6     3    11 1   
     7     3    49 1   
     8     4     5 ar  
     9     4    16 1   
    10     5    32 1   
    11     6     7 ar  
    12     6     8 1   
    13     7    11 1   
    14     8     9 1   
    15     8    15 1   
    16     9    10 1   
    17     9    14 2   
    18    10    11 2   
    19    10    12 1   
    20    12    13 2   
    21    12    28 1   
    22    15    33 1   
    23    16    17 1   
    24    17    18 ar  
    25    17    22 ar  
    26    18    19 ar  
    27    18    34 1   
    28    19    20 ar  
    29    19    35 1   
    30    20    21 ar  
    31    20    23 1   
    32    21    22 ar  
    33    21    36 1   
    34    22    37 1   
    35    23    24 1   
    36    23    26 1   
    37    24    25 1   
    38    24    38 1   
    39    24    39 1   
    40    25    40 1   
    41    25    41 1   
    42    25    42 1   
    43    26    27 1   
    44    26    43 1   
    45    26    50 1   
    46    27    44 1   
    47    27    45 1   
    48    27    51 1   
    49    28    30 1   
    50    29    30 1   
    51    29    46 1   
    52    29    47 1   
    53    29    52 1   
    54    30    48 1   
    55    30    53 1   
@<TRIPOS>SUBSTRUCTURE
     1 LP9         1 TEMP              0 ****  ****    0 ROOT
