@<TRIPOS>MOLECULE
molecule
   25    25     1     0     0
SMALL
bcc


@<TRIPOS>ATOM
      1 C1           0.0000     0.0000     0.0000 c          1 LPA       0.891600
      2 O1           1.3410     0.0000     0.0000 o          1 LPA      -0.857300
      3 C2          -0.7540     0.0000     1.3040 c3         1 LPA      -0.182400
      4 O2          -0.6050     0.0050    -1.0470 o          1 LPA      -0.857300
      5 C3          -2.2590     0.0070     1.0250 c3         1 LPA      -0.062400
      6 C4          -3.0240     0.0070     2.3500 c3         1 LPA      -0.091400
      7 C5          -4.5280     0.0130     2.0710 c3         1 LPA      -0.071400
      8 C6          -5.2930     0.0130     3.3960 c3         1 LPA       0.035400
      9 S6          -4.9970     1.5910     4.2750 ss         1 LPA      -0.183100
     10 C7          -6.7910    -0.1330     3.1220 c3         1 LPA      -0.098400
     11 C8          -7.6780     0.4820     4.2230 c3         1 LPA       0.031700
     12 S8          -6.9790     2.1700     4.4590 ss         1 LPA      -0.253100
     13 H2          -0.4890     0.8820     1.8740 hc         1 LPA       0.028700
     14 H2A         -0.4960    -0.8870     1.8700 hc         1 LPA       0.028700
     15 H3          -2.5240    -0.8750     0.4540 hc         1 LPA       0.046700
     16 H3A         -2.5170     0.8940     0.4590 hc         1 LPA       0.046700
     17 H4          -2.7580     0.8880     2.9200 hc         1 LPA       0.037700
     18 H4A         -2.7660    -0.8800     2.9160 hc         1 LPA       0.037700
     19 H5          -4.7930    -0.8690     1.5000 hc         1 LPA       0.054700
     20 H5A         -4.7860     0.9000     1.5050 hc         1 LPA       0.054700
     21 H6          -4.9580    -0.8120     4.0130 h1         1 LPA       0.080700
     22 H7          -7.0250    -1.1870     3.0380 hc         1 LPA       0.066200
     23 H7A         -7.0190     0.3550     2.1820 hc         1 LPA       0.066200
     24 H8          -7.5980    -0.0920     5.1380 h1         1 LPA       0.075200
     25 H8A         -8.7070     0.5410     3.8910 h1         1 LPA       0.075200
@<TRIPOS>BOND
     1     3     1 1
     2     1     4 1
     3     1     2 1
     4     5     3 1
     5     3    13 1
     6     3    14 1
     7     6     5 1
     8     5    15 1
     9     5    16 1
    10     7     6 1
    11     6    17 1
    12     6    18 1
    13     8     7 1
    14     7    19 1
    15     7    20 1
    16    10     8 1
    17     8     9 1
    18     8    21 1
    19    12     9 1
    20    11    10 1
    21    10    22 1
    22    10    23 1
    23    11    12 1
    24    11    24 1
    25    11    25 1
@<TRIPOS>SUBSTRUCTURE
     1 LPA         1 TEMP              0 ****  ****    0 ROOT
