@<TRIPOS>MOLECULE
LPA
   25    25     1     0     0
SMALL
bcc


@<TRIPOS>ATOM
      1 C1          0.0130   -0.4060    0.0130 c         1 LPA      0.908600
      2 O1          1.1390    0.1370   -0.1760 o         1 LPA     -0.851800
      3 C2         -0.7370   -0.0620    1.3130 c3        1 LPA     -0.195400
      4 O2         -0.5190   -1.2260   -0.7920 o         1 LPA     -0.851800
      5 C3         -2.2140    0.1190    1.0610 c3        1 LPA     -0.067400
      6 C4         -3.0140    0.1370    2.3470 c3        1 LPA     -0.082400
      7 C5         -4.4980    0.2390    2.0580 c3        1 LPA     -0.069400
      8 C6         -5.3270    0.1700    3.3220 c3        1 LPA      0.020400
      9 S6         -5.0390    1.6490    4.2870 ss        1 LPA     -0.169100
     10 C7         -6.8070    0.0490    3.0140 c3        1 LPA     -0.086400
     11 C8         -7.6540    0.3220    4.2330 c3        1 LPA      0.000700
     12 S8         -7.0310    1.7100    5.1430 ss        1 LPA     -0.238100
     13 H2         -0.5700   -0.9050    2.0310 hc        1 LPA      0.021200
     14 H2A        -0.2990    0.8630    1.7620 hc        1 LPA      0.021200
     15 H3         -2.3850    1.0750    0.5000 hc        1 LPA      0.046700
     16 H3A        -2.5670   -0.7210    0.4020 hc        1 LPA      0.046700
     17 H4         -2.8070   -0.7990    2.9300 hc        1 LPA      0.036200
     18 H4A        -2.6990    1.0050    2.9870 hc        1 LPA      0.036200
     19 H5         -4.7110    1.1960    1.5120 hc        1 LPA      0.054700
     20 H5A        -4.8030   -0.6050    1.3820 hc        1 LPA      0.054700
     21 H6         -4.9960   -0.7060    3.9390 h1        1 LPA      0.080700
     22 H7         -7.0190   -0.9870    2.6340 hc        1 LPA      0.068700
     23 H7A        -7.0780    0.7660    2.1930 hc        1 LPA      0.068700
     24 H8         -8.7040    0.5640    3.9380 h1        1 LPA      0.073700
     25 H8A        -7.6750   -0.5690    4.9060 h1        1 LPA      0.073700
@<TRIPOS>BOND
     1    1    2 1   
     2    1    3 1   
     3    1    4 1   
     4    3    5 1   
     5    3   13 1   
     6    3   14 1   
     7    5    6 1   
     8    5   15 1   
     9    5   16 1   
    10    6    7 1   
    11    6   17 1   
    12    6   18 1   
    13    7    8 1   
    14    7   19 1   
    15    7   20 1   
    16    8    9 1   
    17    8   10 1   
    18    8   21 1   
    19    9   12 1   
    20   10   11 1   
    21   10   22 1   
    22   10   23 1   
    23   11   12 1   
    24   11   24 1   
    25   11   25 1   
@<TRIPOS>SUBSTRUCTURE
     1 LPA         1 TEMP              0 ****  ****    0 ROOT
