@<TRIPOS>MOLECULE
LPB
   25    25     1     0     0
SMALL
bcc


@<TRIPOS>ATOM
      1 O1         -0.1170    0.6800    0.1160 o         1 LPB     -0.851800
      2 O2          1.4640   -0.4250   -1.0080 o         1 LPB     -0.851800
      3 C1          1.0030    0.0930    0.0490 c         1 LPB      0.908600
      4 C2          1.8730    0.0250    1.3180 c3        1 LPB     -0.195400
      5 C3          1.0400   -0.2700    2.5400 c3        1 LPB     -0.066400
      6 C4          1.8010   -0.0120    3.8250 c3        1 LPB     -0.081400
      7 C5          0.9120   -0.2320    5.0320 c3        1 LPB     -0.076400
      8 C6          1.5990    0.1480    6.3260 c3        1 LPB      0.024400
      9 C7          0.6220    0.3000    7.4780 c3        1 LPB     -0.083400
     10 C8          0.2680   -1.0310    8.0970 c3        1 LPB     -0.002300
     11 S8          1.7270   -2.0000    8.3510 ss        1 LPB     -0.225100
     12 S6          2.8710   -1.0240    6.7900 ss        1 LPB     -0.189100
     13 H21         2.6640   -0.7550    1.1840 hc        1 LPB      0.021200
     14 H22         2.3840    1.0150    1.4290 hc        1 LPB      0.021200
     15 H31         0.7010   -1.3380    2.5150 hc        1 LPB      0.045700
     16 H32         0.1180    0.3720    2.5040 hc        1 LPB      0.045700
     17 H41         2.1820    1.0440    3.8250 hc        1 LPB      0.034700
     18 H42         2.6930   -0.6890    3.8860 hc        1 LPB      0.034700
     19 H51         0.5870   -1.3040    5.0710 hc        1 LPB      0.051700
     20 H52        -0.0160    0.3930    4.9160 hc        1 LPB      0.051700
     21 H6          2.1510    1.1160    6.1770 h1        1 LPB      0.095700
     22 H71         1.0730    0.9680    8.2600 hc        1 LPB      0.065200
     23 H72        -0.3140    0.8020    7.1110 hc        1 LPB      0.065200
     24 H81        -0.4400   -1.5910    7.4390 h1        1 LPB      0.079200
     25 H82        -0.2130   -0.8890    9.0950 h1        1 LPB      0.079200
@<TRIPOS>BOND
     1    1    3 1   
     2    2    3 1   
     3    3    4 1   
     4    4    5 1   
     5    4   13 1   
     6    4   14 1   
     7    5    6 1   
     8    5   15 1   
     9    5   16 1   
    10    6    7 1   
    11    6   17 1   
    12    6   18 1   
    13    7    8 1   
    14    7   19 1   
    15    7   20 1   
    16    8    9 1   
    17    8   12 1   
    18    8   21 1   
    19    9   10 1   
    20    9   22 1   
    21    9   23 1   
    22   10   11 1   
    23   10   24 1   
    24   10   25 1   
    25   11   12 1   
@<TRIPOS>SUBSTRUCTURE
     1 LPB         1 TEMP              0 ****  ****    0 ROOT
