@<TRIPOS>MOLECULE
molecule
   25    25     1     0     0
SMALL
bcc


@<TRIPOS>ATOM
      1 O1           0.0000     0.0000     0.0000 o          1 LPB      -0.856800
      2 O2           1.8800    -0.0040    -1.1620 o          1 LPB      -0.856800
      3 C1           1.2090     0.0000     0.0000 c          1 LPB       0.891600
      4 C2           1.9620     0.0000     1.3050 c3         1 LPB      -0.182400
      5 C3           0.9670    -0.0010     2.4680 c3         1 LPB      -0.062400
      6 C4           1.7310    -0.0020     3.7940 c3         1 LPB      -0.092400
      7 C5           0.7380    -0.0030     4.9560 c3         1 LPB      -0.071400
      8 C6           1.5020    -0.0030     6.2810 c3         1 LPB       0.040400
      9 C7           0.5180     0.1200     7.4360 c3         1 LPB      -0.097400
     10 C8           0.4260    -1.0320     8.4380 c3         1 LPB       0.038700
     11 S8           2.1050    -1.7920     8.4880 ss         1 LPB      -0.258100
     12 S6           2.4390    -1.5740     6.4480 ss         1 LPB      -0.173100
     13 H21          2.5860    -0.8840     1.3620 hc         1 LPB       0.028700
     14 H22          2.5840     0.8850     1.3630 hc         1 LPB       0.028700
     15 H31          0.3450    -0.8860     2.4100 hc         1 LPB       0.045700
     16 H32          0.3430     0.8830     2.4110 hc         1 LPB       0.045700
     17 H41          2.3540     0.8830     3.8520 hc         1 LPB       0.038200
     18 H42          2.3550    -0.8860     3.8510 hc         1 LPB       0.038200
     19 H51          0.1150    -0.8880     4.8990 hc         1 LPB       0.053700
     20 H52          0.1140     0.8810     4.8990 hc         1 LPB       0.053700
     21 H6           2.1920     0.8320     6.3060 h1         1 LPB       0.081700
     22 H71         -0.4680     0.2610     7.0110 hc         1 LPB       0.057700
     23 H72          0.7760     1.0150     7.9910 hc         1 LPB       0.057700
     24 H81         -0.3020    -1.7610     8.1020 h1         1 LPB       0.075200
     25 H82          0.1600    -0.6540     9.4180 h1         1 LPB       0.075200
@<TRIPOS>BOND
     1     1     3 1
     2     2     3 1
     3     3     4 1
     4     4     5 1
     5     4    13 1
     6     4    14 1
     7     5     6 1
     8     5    15 1
     9     5    16 1
    10     6     7 1
    11     6    17 1
    12     6    18 1
    13     7     8 1
    14     7    19 1
    15     7    20 1
    16     8     9 1
    17     8    12 1
    18     8    21 1
    19     9    10 1
    20     9    22 1
    21     9    23 1
    22    10    11 1
    23    10    24 1
    24    10    25 1
    25    11    12 1
@<TRIPOS>SUBSTRUCTURE
     1 LPB         1 TEMP              0 ****  ****    0 ROOT
