@<TRIPOS>MOLECULE
molecule
   90    89     1     0     0
SMALL
bcc


@<TRIPOS>ATOM
      1 C1           0.0000     0.0000     0.0000 c3         1 LPE       0.122400
      2 O1          -0.4620     1.1580     0.6830 os         1 LPE      -0.416600
      3 C2           1.5220     0.0000     0.0000 c3         1 LPE       0.147100
      4 O2H          1.9640     0.0000     1.3600 oh         1 LPE      -0.619800
      5 C3           2.0800    -1.2370    -0.6940 c3         1 LPE       0.172400
      6 C11         -1.8800     1.2260     0.6980 c3         1 LPE       0.138400
      7 C12         -2.3350     2.4790     1.4370 c3         1 LPE      -0.081400
      8 O3           3.5030    -1.2010    -0.6790 os         1 LPE      -0.541200
      9 P            4.3070    -2.4230    -1.3660 p5         1 LPE       1.253800
     10 O31          4.0310    -2.6280    -2.8280 o          1 LPE      -0.752000
     11 O32          5.8540    -2.0900    -1.0250 o          1 LPE      -0.752000
     12 O33          3.9440    -3.6830    -0.4170 os         1 LPE      -0.554200
     13 C31          4.1620    -3.6040     0.9820 c3         1 LPE       0.188400
     14 C32          3.7420    -4.9070     1.6350 c3         1 LPE       0.106800
     15 N            3.9380    -4.8030     3.1040 n4         1 LPE      -0.629800
     16 C1N          5.4150    -4.5610     3.4400 c3         1 LPE       0.119433
     17 C2N          3.1190    -3.6410     3.6810 c3         1 LPE       0.119433
     18 C3N          3.4940    -6.0950     3.8030 c3         1 LPE       0.119433
     19 C13         -3.8620     2.5930     1.4940 c3         1 LPE      -0.076400
     20 C14         -4.3520     3.8310     2.2520 c3         1 LPE      -0.077400
     21 C15         -5.8760     3.9300     2.3370 c3         1 LPE      -0.076400
     22 C16         -6.3090     5.2200     3.0390 c3         1 LPE      -0.076400
     23 C17         -7.8330     5.3390     3.0910 c3         1 LPE      -0.076400
     24 C18         -8.3230     6.6230     3.7660 c3         1 LPE      -0.078400
     25 C19         -9.8400     6.8370     3.7710 c3         1 LPE      -0.076400
     26 C20        -10.2750     8.1070     4.5070 c3         1 LPE      -0.076400
     27 C21        -11.7960     8.2740     4.4720 c3         1 LPE      -0.075400
     28 C22        -12.2340     9.5230     5.2390 c3         1 LPE      -0.076400
     29 C23        -13.7510     9.7310     5.2520 c3         1 LPE      -0.077400
     30 C24        -14.2540    10.9190     6.0780 c3         1 LPE      -0.074400
     31 C25        -15.7710    11.1080     6.0090 c3         1 LPE      -0.074400
     32 C26        -16.2730    12.2920     6.8410 c3         1 LPE      -0.078400
     33 C27        -17.7730    12.5830     6.7410 c3         1 LPE      -0.079400
     34 C28        -18.2300    13.7340     7.6230 c3         1 LPE      -0.087100
     35 H11         -0.3630    -0.8870     0.5040 h1         1 LPE       0.028200
     36 H12         -0.3630     0.0110    -1.0210 h1         1 LPE       0.028200
     37 H21          1.8850     0.8900    -0.4990 h1         1 LPE       0.064700
     38 HO21         2.4440     0.7920     1.5350 ho         1 LPE       0.412000
     39 H31          1.7320    -1.2620    -1.7200 h1         1 LPE       0.025200
     40 H32          1.7370    -2.1250    -0.1770 h1         1 LPE       0.025200
     41 H111        -2.2760     0.3510     1.1980 h1         1 LPE       0.020700
     42 H112        -2.2490     1.2560    -0.3200 h1         1 LPE       0.020700
     43 H121        -1.9470     2.4510     2.4470 hc         1 LPE       0.051700
     44 H122        -1.9370     3.3500     0.9300 hc         1 LPE       0.051700
     45 H311         3.5780    -2.7900     1.3930 h1         1 LPE       0.048700
     46 H312         5.2140    -3.4270     1.1730 h1         1 LPE       0.048700
     47 H321         4.3460    -5.7180     1.2460 hx         1 LPE       0.099700
     48 H322         2.6980    -5.0980     1.4210 hx         1 LPE       0.099700
     49 H1N1         6.0330    -5.2330     2.8570 hx         1 LPE       0.092256
     50 H1N2         5.5800    -4.7430     4.4950 hx         1 LPE       0.092256
     51 H1N3         5.6760    -3.5360     3.2060 hx         1 LPE       0.092256
     52 H2N1         2.9830    -3.7890     4.7450 hx         1 LPE       0.092256
     53 H2N2         3.6440    -2.7090     3.5100 hx         1 LPE       0.092256
     54 H2N3         2.1510    -3.6050     3.1940 hx         1 LPE       0.092256
     55 H3N1         2.4420    -6.2680     3.6100 hx         1 LPE       0.092256
     56 H3N2         4.0730    -6.9290     3.4230 hx         1 LPE       0.092256
     57 H3N3         3.6540    -6.0010     4.8700 hx         1 LPE       0.092256
     58 H131        -4.2580     1.7100     1.9810 hc         1 LPE       0.037700
     59 H132        -4.2450     2.6330     0.4820 hc         1 LPE       0.037700
     60 H141        -3.9500     3.8030     3.2580 hc         1 LPE       0.040200
     61 H142        -3.9740     4.7150     1.7520 hc         1 LPE       0.040200
     62 H151        -6.2890     3.9150     1.3360 hc         1 LPE       0.039700
     63 H152        -6.2570     3.0800     2.8910 hc         1 LPE       0.039700
     64 H161        -5.9050     6.0690     2.5010 hc         1 LPE       0.040700
     65 H162        -5.9180     5.2220     4.0500 hc         1 LPE       0.040700
     66 H171        -8.2160     5.3110     2.0780 hc         1 LPE       0.037700
     67 H172        -8.2280     4.4890     3.6350 hc         1 LPE       0.037700
     68 H181        -7.8660     7.4660     3.2610 hc         1 LPE       0.036200
     69 H182        -7.9810     6.6170     4.7940 hc         1 LPE       0.036200
     70 H191       -10.1850     6.8960     2.7460 hc         1 LPE       0.037700
     71 H192       -10.3090     5.9840     4.2460 hc         1 LPE       0.037700
     72 H201        -9.9480     8.0480     5.5380 hc         1 LPE       0.040200
     73 H202        -9.8120     8.9660     4.0360 hc         1 LPE       0.040200
     74 H211       -12.1200     8.3590     3.4420 hc         1 LPE       0.040200
     75 H212       -12.2590     7.4030     4.9190 hc         1 LPE       0.040200
     76 H221       -11.8870     9.4410     6.2620 hc         1 LPE       0.037700
     77 H222       -11.7700    10.3900     4.7840 hc         1 LPE       0.037700
     78 H231       -14.0820     9.8670     4.2300 hc         1 LPE       0.036200
     79 H232       -14.2120     8.8310     5.6410 hc         1 LPE       0.036200
     80 H241       -13.9700    10.7670     7.1130 hc         1 LPE       0.037700
     81 H242       -13.7760    11.8210     5.7150 hc         1 LPE       0.037700
     82 H251       -16.0550    11.2650     4.9750 hc         1 LPE       0.037700
     83 H252       -16.2500    10.2040     6.3670 hc         1 LPE       0.037700
     84 H261       -16.0350    12.1010     7.8800 hc         1 LPE       0.036200
     85 H262       -15.7350    13.1780     6.5260 hc         1 LPE       0.036200
     86 H271       -18.0110    12.8210     5.7110 hc         1 LPE       0.036700
     87 H272       -18.3180    11.6910     7.0260 hc         1 LPE       0.036700
     88 H281       -17.6990    14.6360     7.3450 hc         1 LPE       0.033367
     89 H282       -18.0240    13.4990     8.6600 hc         1 LPE       0.033367
     90 H283       -19.2950    13.8880     7.4930 hc         1 LPE       0.033367
@<TRIPOS>BOND
     1     1     2 1
     2     1     3 1
     3     1    35 1
     4     1    36 1
     5     2     6 1
     6     3     4 1
     7     3     5 1
     8     3    37 1
     9     4    38 1
    10     5     8 1
    11     5    39 1
    12     5    40 1
    13     6     7 1
    14     6    41 1
    15     6    42 1
    16     7    19 1
    17     7    43 1
    18     7    44 1
    19     8     9 1
    20     9    10 1
    21     9    11 1
    22     9    12 1
    23    12    13 1
    24    13    14 1
    25    13    45 1
    26    13    46 1
    27    14    15 1
    28    14    47 1
    29    14    48 1
    30    15    16 1
    31    15    17 1
    32    15    18 1
    33    16    49 1
    34    16    50 1
    35    16    51 1
    36    17    52 1
    37    17    53 1
    38    17    54 1
    39    18    55 1
    40    18    56 1
    41    18    57 1
    42    19    20 1
    43    19    58 1
    44    19    59 1
    45    20    21 1
    46    20    60 1
    47    20    61 1
    48    21    22 1
    49    21    62 1
    50    21    63 1
    51    22    23 1
    52    22    64 1
    53    22    65 1
    54    23    24 1
    55    23    66 1
    56    23    67 1
    57    24    25 1
    58    24    68 1
    59    24    69 1
    60    25    26 1
    61    25    70 1
    62    25    71 1
    63    26    27 1
    64    26    72 1
    65    26    73 1
    66    27    28 1
    67    27    74 1
    68    27    75 1
    69    28    29 1
    70    28    76 1
    71    28    77 1
    72    29    30 1
    73    29    78 1
    74    29    79 1
    75    30    31 1
    76    30    80 1
    77    30    81 1
    78    31    32 1
    79    31    82 1
    80    31    83 1
    81    32    33 1
    82    32    84 1
    83    32    85 1
    84    33    34 1
    85    33    86 1
    86    33    87 1
    87    34    88 1
    88    34    89 1
    89    34    90 1
@<TRIPOS>SUBSTRUCTURE
     1 LPE         1 TEMP              0 ****  ****    0 ROOT
