@<TRIPOS>MOLECULE
LPF
   51    49     1     0     0
SMALL
bcc


@<TRIPOS>ATOM
      1 C1          8.7810  -24.2570 -152.9900 c3        1 LPF      0.407000
      2 F11        10.0660  -24.1130 -152.5580 f         1 LPF     -0.128333
      3 F12         7.9860  -24.0370 -151.8970 f         1 LPF     -0.128333
      4 F13         8.6210  -25.5790 -153.3040 f         1 LPF     -0.128333
      5 C2          8.4410  -23.3160 -154.1960 c2        1 LPF      0.171000
      6 O2          9.3050  -22.9740 -154.9930 o         1 LPF     -0.186000
      7 C3          6.9850  -22.8850 -154.2950 c3        1 LPF     -0.133000
      8 C4          6.1330  -24.0930 -154.7350 c3        1 LPF     -0.132000
      9 CP1         4.6960  -23.7320 -154.8400 ca        1 LPF     -0.151000
     10 CP2         4.1260  -23.4730 -156.0930 ca        1 LPF     -0.129000
     11 CP3         2.7690  -23.1710 -156.1950 ca        1 LPF     -0.114500
     12 CP4         1.9740  -23.1280 -155.0490 ca        1 LPF     -0.098000
     13 CP5         2.5370  -23.3900 -153.7990 ca        1 LPF     -0.114500
     14 CP6         3.8940  -23.6930 -153.6930 ca        1 LPF     -0.129000
     15 N3          6.8080  -21.7230 -155.2250 n4        1 LPF     -0.095000
     16 CN1         7.0050  -20.3570 -154.6000 c2        1 LPF      0.242000
     17 ON1         7.0950  -20.3090 -153.3850 o         1 LPF     -0.182000
     18 CN2         7.1200  -19.1600 -155.5690 c3        1 LPF     -0.015000
     19 NL1         6.5740  -19.4690 -156.8640 n3        1 LPF     -0.397000
     20 CL1       -69.4250  189.7440    0.8310 cl        1 LPF      0.209000
     21 OL1       -69.9150  188.4760    0.7120 oh        1 LPF     -0.178000
     22 CL2       -70.4950  186.3610    0.7930 cl        1 LPF      0.209000
     23 CA1         6.5070  -17.9500 -154.8440 c3        1 LPF     -0.185000
     24 CA2         6.7240  -16.6520 -155.6080 c3        1 LPF     -0.106000
     25 CA3         6.0200  -15.5250 -154.8760 c3        1 LPF     -0.217500
     26 CA4         8.1950  -16.3300 -155.7710 c3        1 LPF     -0.217500
     27 H3          6.6360  -22.5550 -153.2620 hx        1 LPF      0.199000
     28 H41         6.2790  -24.8950 -153.9570 hc        1 LPF      0.137000
     29 H42         6.5140  -24.4970 -155.7110 hc        1 LPF      0.137000
     30 HP2         4.7360  -23.5500 -157.0070 ha        1 LPF      0.139500
     31 HP3         2.3210  -22.9840 -157.1840 ha        1 LPF      0.156500
     32 HP4         0.8990  -22.9000 -155.1320 ha        1 LPF      0.158000
     33 HP5         1.9080  -23.3710 -152.8950 ha        1 LPF      0.156500
     34 HP6         4.3300  -23.9200 -152.7070 ha        1 LPF      0.139500
     35 HN3         5.8480  -21.7600 -155.6120 hn        1 LPF      0.276000
     36 HN2         8.2430  -18.9950 -155.6470 h1        1 LPF      0.158000
     37 HL1         7.1850  -19.1770 -157.6020 hn        1 LPF      0.197000
     38 HL21      -69.1940  190.5950    0.8020 ha        1 LPF      0.251000
     39 HL22      -70.8830  185.2610    0.2230 ha        1 LPF      0.251000
     40 HL23      -70.1350  187.7120    0.3140 ho        1 LPF      0.257000
     41 HA11        5.4070  -18.1140 -154.6960 hc        1 LPF      0.114500
     42 HA12        6.9790  -17.8650 -153.8270 hc        1 LPF      0.114500
     43 HA2         6.2620  -16.7450 -156.6310 hc        1 LPF      0.084000
     44 HA31        6.1280  -14.5720 -155.4490 hc        1 LPF      0.087667
     45 HA32        6.4620  -15.3790 -153.8610 hc        1 LPF      0.087667
     46 HA33        4.9320  -15.7490 -154.7620 hc        1 LPF      0.087667
     47 HA41        8.6920  -17.0600 -156.4550 hc        1 LPF      0.087667
     48 HA42        8.3150  -15.3090 -156.2100 hc        1 LPF      0.087667
     49 HA43        8.7170  -16.3490 -154.7840 hc        1 LPF      0.087667
     50 H32         7.4700  -21.8130 -156.0090 hn        1 LPF      0.276000
     51 HL12        5.6630  -19.0730 -156.9930 hn        1 LPF      0.197000
@<TRIPOS>BOND
     1    1    2 1
     2    1    3 1
     3    1    4 1
     4    1    5 1
     5    5    6 1
     6    5    7 1
     7    7    8 1
     8    7   15 1
     9    7   27 1
    10    8    9 1
    11    8   28 1
    12    8   29 1
    13    9   10 1
    14    9   14 1
    15   10   11 1
    16   10   30 1
    17   11   12 1
    18   11   31 1
    19   12   13 1
    20   12   32 1
    21   13   14 1
    22   13   33 1
    23   14   34 1
    24   15   16 1
    25   15   35 1
    26   15   50 1
    27   16   17 1
    28   16   18 1
    29   18   19 1
    30   18   23 1
    31   18   36 1
    32   19   37 1
    33   19   51 1
    34   20   21 1
    35   20   38 1
    36   21   40 1
    37   22   39 1
    38   23   24 1
    39   23   41 1
    40   23   42 1
    41   24   25 1
    42   24   26 1
    43   24   43 1
    44   25   44 1
    45   25   45 1
    46   25   46 1
    47   26   47 1
    48   26   48 1
    49   26   49 1
@<TRIPOS>SUBSTRUCTURE
     1 LPF         1 TEMP              0 ****  ****    0 ROOT
