@<TRIPOS>MOLECULE
molecule
   42    42     1     0     0
SMALL
bcc


@<TRIPOS>ATOM
      1 OP1          0.0000     0.0000     0.0000 o          1 LPI      -0.910500
      2 P            1.4810     0.0000     0.0000 p5         1 LPI       1.182900
      3 OP3          2.0170     0.0000     1.5180 o          1 LPI      -0.910500
      4 OP2          2.0170    -1.3150    -0.7600 o          1 LPI      -0.910500
      5 OP4          2.0180     1.3140    -0.7590 os         1 LPI      -0.594200
      6 C5'          1.6290     1.6580    -2.0900 c3         1 LPI       0.239700
      7 C5           2.3080     2.9400    -2.4980 ca         1 LPI      -0.138600
      8 C6           3.1570     3.5900    -1.6220 ca         1 LPI       0.426200
      9 N1           3.7570     4.7120    -1.9670 nb         1 LPI      -0.723000
     10 C2           3.5750     5.2600    -3.1520 ca         1 LPI       0.328600
     11 C2'          4.2850     6.5440    -3.4980 c3         1 LPI      -0.120400
     12 C3           2.7380     4.6660    -4.0850 ca         1 LPI      -0.031200
     13 O3           2.5530     5.2340    -5.3070 oh         1 LPI      -0.520100
     14 C4           2.0930     3.4790    -3.7560 ca         1 LPI      -0.082300
     15 C4'          1.1750     2.8000    -4.7400 c3         1 LPI       0.212100
     16 C1           1.0840     1.1760    -6.5340 c3         1 LPI       0.053500
     17 C8           1.9230     0.7170    -7.7270 c3         1 LPI      -0.035400
     18 C9           2.4750     1.9400    -8.4640 c3         1 LPI       0.046700
     19 S10          3.4700     1.3960    -9.8790 ss         1 LPI      -0.422200
     20 C11          4.0270     2.9600   -10.6110 c3         1 LPI       0.001000
     21 C7           0.4410    -0.0210    -5.8820 c          1 LPI       0.851600
     22 O9          -0.3940    -0.8000    -6.5860 o          1 LPI      -0.820800
     23 O8           0.6780    -0.2800    -4.7260 o          1 LPI      -0.820800
     24 N3           1.9480     1.8580    -5.5610 n7         1 LPI      -0.828200
     25 H3           0.5540     1.7910    -2.1290 h1         1 LPI       0.065700
     26 H4           1.9190     0.8640    -2.7680 h1         1 LPI       0.065700
     27 H5           3.3320     3.1710    -0.6380 h4         1 LPI       0.075100
     28 H6           4.9680     6.8060    -2.6980 hc         1 LPI       0.024033
     29 H7           4.8400     6.4140    -4.4190 hc         1 LPI       0.024033
     30 H8           3.5570     7.3360    -3.6240 hc         1 LPI       0.024033
     31 H9           1.9240     5.9330    -5.2370 ho         1 LPI       0.383000
     32 H10          0.4040     2.2610    -4.2020 h1         1 LPI       0.041700
     33 H11          0.7160     3.5440    -5.3790 h1         1 LPI       0.041700
     34 H12          0.3140     1.8580    -6.8750 h1         1 LPI       0.033700
     35 H13          2.7460     0.1060    -7.3760 hc         1 LPI       0.057200
     36 H14          1.3050     0.1380    -8.4020 hc         1 LPI       0.057200
     37 H15          3.0930     2.5190    -7.7890 h1         1 LPI       0.060700
     38 H16          1.6520     2.5510    -8.8140 h1         1 LPI       0.060700
     39 H17          3.1650     3.5470   -10.9070 h1         1 LPI       0.040367
     40 H18          4.6080     3.5130    -9.8830 h1         1 LPI       0.040367
     41 H19          4.6390     2.7530   -11.4810 h1         1 LPI       0.040367
     42 H21          2.3840     1.1790    -4.9690 hn         1 LPI       0.391800
@<TRIPOS>BOND
     1    11    10 1
     2    10     9 ar
     3    10    12 ar
     4     9     8 ar
     5    13    12 1
     6    12    14 ar
     7    23    21 1
     8     8     7 ar
     9    14     7 ar
    10    14    15 1
    11     7     6 1
    12    21    22 1
    13    21    16 1
    14    24    15 1
    15    24    16 1
    16    16    17 1
    17     6     5 1
    18    17    18 1
    19     5     2 1
    20    18    19 1
    21    20    19 1
    22     2     1 1
    23     2     3 1
    24     2     4 1
    25     6    25 1
    26     6    26 1
    27     8    27 1
    28    11    28 1
    29    11    29 1
    30    11    30 1
    31    13    31 1
    32    15    32 1
    33    15    33 1
    34    16    34 1
    35    17    35 1
    36    17    36 1
    37    18    37 1
    38    18    38 1
    39    20    39 1
    40    20    40 1
    41    20    41 1
    42    24    42 1
@<TRIPOS>SUBSTRUCTURE
     1 LPI         1 TEMP              0 ****  ****    0 ROOT
