@<TRIPOS>MOLECULE
LPM
   30    29     1     0     0
SMALL
bcc


@<TRIPOS>ATOM
      1 C1           0.0000     0.0000     0.0000 c          1 LPM       0.305100
      2 O            1.2130     0.0000     0.0000 o          1 LPM      -0.386100
      3 N           -0.6730     0.0000     1.1670 nz         1 LPM       0.196600
      4 C2          -0.7520     0.0000    -1.3050 c3         1 LPM      -0.089400
      5 C3           0.2410    -0.0010    -2.4680 c3         1 LPM      -0.014400
      6 C4          -0.5240     0.0000    -3.7930 c3         1 LPM      -0.051400
      7 C5           0.4690    -0.0010    -4.9550 c3         1 LPM      -0.004400
      8 C6          -0.2950    -0.0010    -6.2800 c3         1 LPM       0.078400
      9 S6          -1.3390     1.4790    -6.3760 sh         1 LPM      -0.394900
     10 C7           0.6980    -0.0020    -7.4430 c3         1 LPM       0.012600
     11 C8          -0.0660    -0.0010    -8.7680 c3         1 LPM       0.074700
     12 S8           1.1120    -0.0020   -10.1470 sh         1 LPM      -0.396900
     13 HN1         -0.0220     0.0190     1.9270 hn         1 LPM       0.247467
     14 HN2         -1.2330    -0.8270     1.2290 hn         1 LPM       0.247467
     15 H21         -1.3740     0.8850    -1.3630 hc         1 LPM       0.057700
     16 H22         -1.3760    -0.8840    -1.3620 hc         1 LPM       0.057700
     17 H31          0.8650     0.8830    -2.4110 hc         1 LPM       0.039200
     18 H32          0.8630    -0.8860    -2.4110 hc         1 LPM       0.039200
     19 H41         -1.1480    -0.8840    -3.8500 hc         1 LPM       0.032700
     20 H42         -1.1450     0.8850    -3.8500 hc         1 LPM       0.032700
     21 H51          1.0930     0.8830    -4.8980 hc         1 LPM       0.033700
     22 H52          1.0910    -0.8860    -4.8970 hc         1 LPM       0.033700
     23 H6          -0.9170    -0.8860    -6.3370 h1         1 LPM       0.038700
     24 HS6         -2.6090     1.1170    -6.5080 hs         1 LPM       0.190800
     25 H71          1.3210    -0.8860    -7.3860 hc         1 LPM       0.042700
     26 H72          1.3220     0.8830    -7.3860 hc         1 LPM       0.042700
     27 H81         -0.6890     0.8830    -8.8250 h1         1 LPM       0.043700
     28 H82         -0.6900    -0.8860    -8.8250 h1         1 LPM       0.043700
     29 HS8          0.4490    -0.0750   -11.2950 hs         1 LPM       0.198800
     30 HN3         -1.2630     0.8070     1.2120 hn         1 LPM       0.247467
@<TRIPOS>BOND
     1     1     2 2   
     2     1     3 1   
     3     1     4 1   
     4     3    13 1   
     5     3    14 1   
     6     3    30 1   
     7     4     5 1   
     8     4    15 1   
     9     4    16 1   
    10     5     6 1   
    11     5    17 1   
    12     5    18 1   
    13     6     7 1   
    14     6    19 1   
    15     6    20 1   
    16     7     8 1   
    17     7    21 1   
    18     7    22 1   
    19     8     9 1   
    20     8    10 1   
    21     8    23 1   
    22     9    24 1   
    23    10    11 1   
    24    10    25 1   
    25    10    26 1   
    26    11    12 1   
    27    11    27 1   
    28    11    28 1   
    29    12    29 1   
@<TRIPOS>SUBSTRUCTURE
     1 LPM         1 TEMP              0 ****  ****    0 ROOT
