@<TRIPOS>MOLECULE
LPN
   85    89     1     0     0
SMALL
bcc


@<TRIPOS>ATOM
      1 Cl1          0.0000     0.0000     0.0000 cl         1 LPN       0.001100
      2 C2           1.7360     0.0000     0.0000 ca         1 LPN      -0.053100
      3 C3           2.4310     0.0000     1.2010 ca         1 LPN       0.116100
      4 C4           2.4290    -0.0050    -1.1970 ca         1 LPN      -0.091000
      5 O5           1.7530    -0.0010     2.3800 os         1 LPN      -0.313900
      6 C6           3.8190     0.0010     1.1970 ca         1 LPN      -0.053100
      7 C7           3.8110    -0.0050    -1.1980 ca         1 LPN      -0.078300
      8 C8           1.4310    -1.2740     2.9420 c3         1 LPN       0.205400
      9 Cl9          4.6930    -0.0000     2.6980 cl         1 LPN       0.001100
     10 C10          4.5060     0.0020    -0.0030 ca         1 LPN      -0.091000
     11 C11          4.5620    -0.0120    -2.5050 c3         1 LPN       0.064200
     12 C12          0.6740    -1.0750     4.2570 c3         1 LPN       0.198400
     13 O13         -0.5820    -0.4490     3.9930 os         1 LPN      -0.297900
     14 C14         -1.3830    -0.1990     5.0620 ca         1 LPN       0.147100
     15 C15         -2.6180     0.4070     4.8790 ca         1 LPN      -0.179500
     16 C16         -0.9700    -0.5540     6.3380 ca         1 LPN      -0.179500
     17 C17         -3.4300     0.6600     5.9670 ca         1 LPN      -0.043500
     18 C18         -1.7860    -0.2980     7.4230 ca         1 LPN      -0.043500
     19 C19         -3.0140     0.3110     7.2380 ca         1 LPN      -0.117300
     20 C20         -3.9020     0.5900     8.4230 c3         1 LPN       0.032600
     21 C21         -3.1750     1.5200     9.3990 c3         1 LPN      -0.119700
     22 C22         -4.2330    -0.7260     9.1350 c3         1 LPN      -0.028400
     23 C23         -2.8990     2.8390     8.7250 c          1 LPN       0.596100
     24 C24         -4.0570     1.7500    10.6290 c3         1 LPN       0.114800
     25 C25         -5.0830    -0.4300    10.3730 c3         1 LPN       0.144800
     26 O26         -3.2470     3.0180     7.5770 o          1 LPN      -0.641100
     27 N27         -2.2640     3.8190     9.3970 n          1 LPN      -0.097800
     28 N28         -4.3440     0.4620    11.2740 n7         1 LPN      -0.578200
     29 C29         -1.9140     3.6330    10.8070 cx         1 LPN      -0.060300
     30 C30         -1.9230     5.0720     8.7180 c3         1 LPN       0.095300
     31 C31         -2.6430     4.4990    11.8370 cx         1 LPN      -0.104900
     32 C32         -1.1740     4.7740    11.5090 cx         1 LPN      -0.104900
     33 C33         -0.8180     4.8200     7.7250 ca         1 LPN      -0.115300
     34 C34          0.4890     4.6990     8.1610 ca         1 LPN      -0.029600
     35 C35         -1.1100     4.7040     6.3790 ca         1 LPN      -0.047000
     36 Cl36         0.8580     4.8370     9.8510 cl         1 LPN      -0.036400
     37 C37          1.5040     4.4670     7.2480 ca         1 LPN      -0.104000
     38 C38         -0.0970     4.4730     5.4680 ca         1 LPN      -0.084300
     39 C39          1.2100     4.3570     5.9030 ca         1 LPN      -0.081000
     40 C40         -0.4170     4.3460     4.0000 c3         1 LPN       0.028900
     41 C41         -0.3470     5.7260     3.3430 c3         1 LPN      -0.033400
     42 C42         -0.6710     5.5970     1.8530 c3         1 LPN       0.209400
     43 O43         -0.6050     6.8860     1.2380 os         1 LPN      -0.419600
     44 C44         -0.8940     6.8780    -0.1610 c3         1 LPN       0.255700
     45 H4           1.8870    -0.0100    -2.1360 ha         1 LPN       0.120500
     46 H8           2.3430    -1.8270     3.1300 h1         1 LPN       0.006700
     47 H8A          0.8100    -1.8280     2.2480 h1         1 LPN       0.006700
     48 H10          5.5890     0.0020    -0.0060 ha         1 LPN       0.120500
     49 H11          3.8590    -0.0970    -3.3250 hc         1 LPN       0.011033
     50 H11A         5.2430    -0.8540    -2.5250 hc         1 LPN       0.011033
     51 H11B         5.1230     0.9090    -2.6040 hc         1 LPN       0.011033
     52 H12          1.2590    -0.4480     4.9180 h1         1 LPN       0.011200
     53 H12A         0.5060    -2.0370     4.7260 h1         1 LPN       0.011200
     54 H15         -2.9450     0.6810     3.8830 ha         1 LPN       0.115000
     55 H16         -0.0090    -1.0310     6.4840 ha         1 LPN       0.115000
     56 H17         -4.3930     1.1350     5.8250 ha         1 LPN       0.108000
     57 H18         -1.4630    -0.5730     8.4190 ha         1 LPN       0.108000
     58 H20         -4.8190     1.0610     8.0910 hc         1 LPN       0.043700
     59 H21         -2.2430     1.0620     9.7060 hc         1 LPN       0.058700
     60 H22         -4.7870    -1.3700     8.4630 hc         1 LPN       0.025200
     61 H22A        -3.3140    -1.2140     9.4370 hc         1 LPN       0.025200
     62 H24         -3.5390     2.3940    11.3290 h1         1 LPN       0.024200
     63 H24A        -4.9870     2.2140    10.3230 h1         1 LPN       0.024200
     64 H25         -6.0060     0.0490    10.0690 h1         1 LPN       0.006200
     65 H25A        -5.3040    -1.3580    10.8870 h1         1 LPN       0.006200
     66 HN28        -4.8810     0.6170    12.1040 hn         1 LPN       0.251800
     67 H29         -1.6510     2.6410    11.1540 h1         1 LPN       0.086700
     68 H30         -2.7960     5.4510     8.1990 h1         1 LPN       0.041200
     69 H30A        -1.5930     5.8010     9.4480 h1         1 LPN       0.041200
     70 H31         -3.3530     5.2090    11.4310 hc         1 LPN       0.059200
     71 H31A        -2.8280     4.0300    12.7950 hc         1 LPN       0.059200
     72 H32         -0.9870     5.6520    10.9040 hc         1 LPN       0.059200
     73 H32A        -0.4620     4.4720    12.2680 hc         1 LPN       0.059200
     74 H35         -2.1340     4.7960     6.0370 ha         1 LPN       0.130000
     75 H37          2.5280     4.3740     7.5890 ha         1 LPN       0.113000
     76 H39          2.0040     4.1750     5.1880 ha         1 LPN       0.111000
     77 H40          0.3000     3.6850     3.5300 hc         1 LPN       0.026200
     78 H40A        -1.4150     3.9410     3.8820 hc         1 LPN       0.026200
     79 H41          0.6510     6.1310     3.4610 hc         1 LPN       0.024200
     80 H41A        -1.0640     6.3870     3.8130 hc         1 LPN       0.024200
     81 H42         -1.6690     5.1920     1.7350 h1         1 LPN      -0.008800
     82 H42A         0.0460     4.9350     1.3830 h1         1 LPN      -0.008800
     83 H44         -1.8910     6.4860    -0.3220 h1         1 LPN      -0.014633
     84 H44A        -0.8370     7.8880    -0.5470 h1         1 LPN      -0.014633
     85 H44B        -0.1730     6.2540    -0.6750 h1         1 LPN      -0.014633
@<TRIPOS>BOND
     1     1     2 1   
     2     2     3 ar  
     3     2     4 ar  
     4     3     5 1   
     5     3     6 ar  
     6     4     7 ar  
     7     4    45 1   
     8     5     8 1   
     9     6     9 1   
    10     6    10 ar  
    11     7    10 ar  
    12     7    11 1   
    13     8    12 1   
    14     8    46 1   
    15     8    47 1   
    16    10    48 1   
    17    11    49 1   
    18    11    50 1   
    19    11    51 1   
    20    12    13 1   
    21    12    52 1   
    22    12    53 1   
    23    13    14 1   
    24    14    15 ar  
    25    14    16 ar  
    26    15    17 ar  
    27    15    54 1   
    28    16    18 ar  
    29    16    55 1   
    30    17    19 ar  
    31    17    56 1   
    32    18    19 ar  
    33    18    57 1   
    34    19    20 1   
    35    20    21 1   
    36    20    22 1   
    37    20    58 1   
    38    21    23 1   
    39    21    24 1   
    40    21    59 1   
    41    22    25 1   
    42    22    60 1   
    43    22    61 1   
    44    23    26 2   
    45    23    27 1   
    46    24    28 1   
    47    24    62 1   
    48    24    63 1   
    49    25    28 1   
    50    25    64 1   
    51    25    65 1   
    52    27    29 1   
    53    27    30 1   
    54    28    66 1   
    55    29    31 1   
    56    29    32 1   
    57    29    67 1   
    58    30    33 1   
    59    30    68 1   
    60    30    69 1   
    61    31    32 1   
    62    31    70 1   
    63    31    71 1   
    64    32    72 1   
    65    32    73 1   
    66    33    34 ar  
    67    33    35 ar  
    68    34    36 1   
    69    34    37 ar  
    70    35    38 ar  
    71    35    74 1   
    72    37    39 ar  
    73    37    75 1   
    74    38    39 ar  
    75    38    40 1   
    76    39    76 1   
    77    40    41 1   
    78    40    77 1   
    79    40    78 1   
    80    41    42 1   
    81    41    79 1   
    82    41    80 1   
    83    42    43 1   
    84    42    81 1   
    85    42    82 1   
    86    43    44 1   
    87    44    83 1   
    88    44    84 1   
    89    44    85 1   
@<TRIPOS>SUBSTRUCTURE
     1 LPN         1 TEMP              0 ****  ****    0 ROOT
