@<TRIPOS>MOLECULE
LPO
   82    86     1     0     0
SMALL
bcc


@<TRIPOS>ATOM
      1 C1           0.0000     0.0000     0.0000 c3         1 LPO      -0.063400
      2 C2           1.5300     0.0000     0.0000 c3         1 LPO       0.146800
      3 N3           2.0210     0.0000     1.3840 n7         1 LPO      -0.580200
      4 C4           1.5880    -1.2050     2.1020 c3         1 LPO       0.112800
      5 C5           0.0590    -1.2420     2.1640 c3         1 LPO      -0.123700
      6 C6          -0.5060    -1.2420     0.7410 c3         1 LPO       0.261100
      7 C7          -0.3860    -2.4910     2.8820 c          1 LPO       0.593100
      8 N8          -0.0040    -2.7080     4.1560 n          1 LPO      -0.102800
      9 O9          -0.0720    -2.4170     0.0550 oh         1 LPO      -0.564800
     10 C10         -2.0120    -1.2160     0.7970 ca         1 LPO      -0.258600
     11 C11         -2.6610    -0.6090     1.8530 ca         1 LPO       0.444200
     12 N12         -3.9790    -0.5820     1.9110 nb         1 LPO      -0.664000
     13 C13         -4.7270    -1.1300     0.9680 ca         1 LPO       0.621600
     14 C14         -4.1410    -1.7580    -0.1240 ca         1 LPO      -0.244300
     15 C15         -2.7610    -1.7980    -0.2170 ca         1 LPO      -0.008000
     16 O16         -6.0790    -1.0790     1.0680 os         1 LPO      -0.419100
     17 C17         -6.6200    -0.4200     2.2150 c3         1 LPO       0.209400
     18 C18         -8.1480    -0.4630     2.1540 c3         1 LPO       0.201400
     19 O19         -8.5910    -1.8180     2.2530 os         1 LPO      -0.312900
     20 C20         -9.9330    -2.0330     2.2150 ca         1 LPO       0.119100
     21 C21        -10.5680    -2.2470     1.0000 ca         1 LPO      -0.051600
     22 C22        -11.9330    -2.4660     0.9640 ca         1 LPO      -0.091500
     23 C23        -12.6650    -2.4710     2.1370 ca         1 LPO      -0.079300
     24 C24        -12.0340    -2.2570     3.3490 ca         1 LPO      -0.091500
     25 C25        -10.6690    -2.0450     3.3920 ca         1 LPO      -0.051600
     26 Cl26        -9.8770    -1.7850     4.9140 cl         1 LPO      -0.000400
     27 Cl27        -9.6500    -2.2390    -0.4740 cl         1 LPO      -0.000400
     28 C28        -14.1510    -2.7100     2.0950 c3         1 LPO       0.065200
     29 O29         -1.0880    -3.2990     2.3130 o          1 LPO      -0.614100
     30 C30         -0.5000    -3.8810     4.8790 c3         1 LPO       0.096300
     31 C31          0.9090    -1.7720     4.8170 cx         1 LPO      -0.059300
     32 C32         -1.9640    -3.7000     5.1840 ca         1 LPO      -0.116300
     33 C33         -2.9150    -4.3510     4.4220 ca         1 LPO      -0.049000
     34 C34         -4.2590    -4.1850     4.7020 ca         1 LPO      -0.086300
     35 C35         -4.6520    -3.3670     5.7460 ca         1 LPO      -0.082000
     36 C36         -3.7020    -2.7160     6.5090 ca         1 LPO      -0.103000
     37 C37         -2.3570    -2.8870     6.2330 ca         1 LPO      -0.029600
     38 C38          2.3140    -2.2750     5.1560 cx         1 LPO      -0.104900
     39 C39          1.2880    -2.0620     6.2710 cx         1 LPO      -0.104900
     40 Cl40        -1.1620    -2.0750     7.1960 cl         1 LPO      -0.035400
     41 C41         -5.2950    -4.8960     3.8700 c3         1 LPO       0.017900
     42 C42         -5.5970    -6.2620     4.4890 c3         1 LPO       0.213400
     43 O43         -6.5800    -6.9360     3.7000 os         1 LPO      -0.415600
     44 C44         -6.9360    -8.2280     4.1940 c3         1 LPO       0.255700
     45 H1          -0.3600     0.8910     0.5010 hc         1 LPO       0.029700
     46 H1A         -0.3600    -0.0180    -1.0210 hc         1 LPO       0.029700
     47 H2           1.8900     0.8860    -0.5090 h1         1 LPO       0.010200
     48 H2A          1.8900    -0.8860    -0.5090 h1         1 LPO       0.010200
     49 HN3          3.0210     0.0470     1.3830 hn         1 LPO       0.254800
     50 H4           1.9470    -2.0830     1.5790 h1         1 LPO       0.032700
     51 H4A          1.9880    -1.1880     3.1080 h1         1 LPO       0.032700
     52 H5          -0.3010    -0.3670     2.6930 hc         1 LPO       0.062700
     53 HO9         -0.1410    -2.2810    -0.8760 ho         1 LPO       0.387000
     54 H11         -2.0810    -0.1490     2.6440 h4         1 LPO      -0.017900
     55 H14         -4.7560    -2.2040    -0.8960 ha         1 LPO       0.125000
     56 H15         -2.2760    -2.2810    -1.0560 ha         1 LPO       0.108000
     57 H17         -6.2800    -0.9210     3.1140 h1         1 LPO       0.018700
     58 H17A        -6.2870     0.6110     2.2290 h1         1 LPO       0.018700
     59 H18         -8.5590     0.1130     2.9740 h1         1 LPO       0.005700
     60 H18A        -8.4840    -0.0410     1.2140 h1         1 LPO       0.005700
     61 H22        -12.4300    -2.6340     0.0160 ha         1 LPO       0.120000
     62 H24        -12.6100    -2.2650     4.2670 ha         1 LPO       0.120000
     63 H28        -14.6600    -1.7830     1.8570 hc         1 LPO       0.010367
     64 H28A       -14.4870    -3.0680     3.0610 hc         1 LPO       0.010367
     65 H28B       -14.3770    -3.4510     1.3380 hc         1 LPO       0.010367
     66 H30         -0.3650    -4.7660     4.2680 h1         1 LPO       0.041200
     67 H30A         0.0510    -3.9940     5.8050 h1         1 LPO       0.041200
     68 H31          0.8530    -0.7200     4.5650 h1         1 LPO       0.084700
     69 H33         -2.6080    -4.9920     3.6040 ha         1 LPO       0.132000
     70 H35         -5.7050    -3.2360     5.9640 ha         1 LPO       0.111000
     71 H36         -4.0100    -2.0770     7.3280 ha         1 LPO       0.113000
     72 H38          2.5160    -3.3070     4.8970 hc         1 LPO       0.058950
     73 H38A         3.1020    -1.5340     5.0980 hc         1 LPO       0.058950
     74 H39          0.8630    -2.9640     6.6930 hc         1 LPO       0.058950
     75 H39A         1.4490    -1.1910     6.8940 hc         1 LPO       0.058950
     76 H41         -6.2020    -4.3040     3.8410 hc         1 LPO       0.035200
     77 H41A        -4.9190    -5.0310     2.8630 hc         1 LPO       0.035200
     78 H42         -5.9720    -6.1270     5.4960 h1         1 LPO      -0.009800
     79 H42A        -4.6890    -6.8530     4.5180 h1         1 LPO      -0.009800
     80 H44         -7.3360    -8.1340     5.1960 h1         1 LPO      -0.014633
     81 H44A        -6.0570    -8.8610     4.2140 h1         1 LPO      -0.014633
     82 H44B        -7.6840    -8.6690     3.5470 h1         1 LPO      -0.014633
@<TRIPOS>BOND
     1     1     2 1   
     2     1     6 1   
     3     1    45 1   
     4     1    46 1   
     5     2     3 1   
     6     2    47 1   
     7     2    48 1   
     8     3     4 1   
     9     3    49 1   
    10     4     5 1   
    11     4    50 1   
    12     4    51 1   
    13     5     6 1   
    14     5     7 1   
    15     5    52 1   
    16     6     9 1   
    17     6    10 1   
    18     7     8 1   
    19     7    29 2   
    20     8    30 1   
    21     8    31 1   
    22     9    53 1   
    23    10    11 ar  
    24    10    15 ar  
    25    11    12 ar  
    26    11    54 1   
    27    12    13 ar  
    28    13    14 ar  
    29    13    16 1   
    30    14    15 ar  
    31    14    55 1   
    32    15    56 1   
    33    16    17 1   
    34    17    18 1   
    35    17    57 1   
    36    17    58 1   
    37    18    19 1   
    38    18    59 1   
    39    18    60 1   
    40    19    20 1   
    41    20    21 ar  
    42    20    25 ar  
    43    21    22 ar  
    44    21    27 1   
    45    22    23 ar  
    46    22    61 1   
    47    23    24 ar  
    48    23    28 1   
    49    24    25 ar  
    50    24    62 1   
    51    25    26 1   
    52    28    63 1   
    53    28    64 1   
    54    28    65 1   
    55    30    32 1   
    56    30    66 1   
    57    30    67 1   
    58    31    38 1   
    59    31    39 1   
    60    31    68 1   
    61    32    33 ar  
    62    32    37 ar  
    63    33    34 ar  
    64    33    69 1   
    65    34    35 ar  
    66    34    41 1   
    67    35    36 ar  
    68    35    70 1   
    69    36    37 ar  
    70    36    71 1   
    71    37    40 1   
    72    38    39 1   
    73    38    72 1   
    74    38    73 1   
    75    39    74 1   
    76    39    75 1   
    77    41    42 1   
    78    41    76 1   
    79    41    77 1   
    80    42    43 1   
    81    42    78 1   
    82    42    79 1   
    83    43    44 1   
    84    44    80 1   
    85    44    81 1   
    86    44    82 1   
@<TRIPOS>SUBSTRUCTURE
     1 LPO         1 TEMP              0 ****  ****    0 ROOT
