@<TRIPOS>MOLECULE
LPP
  111   110     1     0     0
SMALL
bcc


@<TRIPOS>ATOM
      1 P1          1.7620   -1.2210   -1.8250 p5        1 LPP      1.323900
      2 O2          2.2050   -2.1750   -2.9130 o         1 LPP     -0.915167
      3 O3          1.6860   -1.7840   -0.4350 o         1 LPP     -0.915167
      4 O4          2.2480    0.1920   -1.9350 o         1 LPP     -0.915167
      5 O5          0.0810   -1.0770   -2.2800 os        1 LPP     -0.564200
      6 C6         -0.7580   -0.6840   -1.2830 c3        1 LPP      0.234400
      7 C7         -2.1020   -1.4620   -1.2790 c3        1 LPP      0.091100
      8 C8         -2.7160   -1.6760   -2.6610 c3        1 LPP      0.144400
      9 O9         -1.8240   -2.7270   -0.6510 os        1 LPP     -0.348900
     10 O27        -2.0740   -2.7590   -3.3260 os        1 LPP     -0.457900
     11 C11        -2.8320   -3.4100   -0.0780 c         1 LPP      0.630100
     12 O10        -3.9850   -2.9510   -0.0370 o         1 LPP     -0.623000
     13 C12        -2.3660   -4.7290    0.4750 c3        1 LPP     -0.139400
     14 C13        -3.1240   -5.0990    1.7300 c3        1 LPP     -0.074400
     15 C14        -2.7360   -6.4820    2.2070 c3        1 LPP     -0.079400
     16 C15        -3.4740   -6.8510    3.4760 c3        1 LPP     -0.077400
     17 C16        -3.0900   -8.2350    3.9550 c3        1 LPP     -0.079400
     18 C17        -3.8280   -8.6040    5.2230 c3        1 LPP     -0.078400
     19 C18        -3.4420   -9.9870    5.7020 c3        1 LPP     -0.079400
     20 C19        -4.1820  -10.3570    6.9700 c3        1 LPP     -0.078400
     21 C20        -3.7950  -11.7390    7.4500 c3        1 LPP     -0.079400
     22 C21        -4.5360  -12.1100    8.7170 c3        1 LPP     -0.078400
     23 C22        -4.1480  -13.4920    9.1970 c3        1 LPP     -0.079400
     24 C23        -4.8890  -13.8620   10.4640 c3        1 LPP     -0.079400
     25 C24        -4.5010  -15.2440   10.9440 c3        1 LPP     -0.079400
     26 C25        -5.2410  -15.6160   12.2120 c3        1 LPP     -0.080400
     27 C26        -4.8570  -16.9910   12.6940 c3        1 LPP     -0.092100
     28 C29        -1.3220   -2.4490   -4.4480 c         1 LPP      0.697100
     29 O28        -1.8120   -1.6130   -5.2190 o         1 LPP     -0.613000
     30 C30        -0.0640   -3.2190   -4.5290 c3        1 LPP     -0.218400
     31 C31         0.5720   -3.1980   -5.8970 c3        1 LPP     -0.037400
     32 C32         2.0430   -3.5430   -5.7770 c3        1 LPP     -0.115400
     33 C33         2.7850   -3.2710   -7.0670 c3        1 LPP     -0.064400
     34 C34         4.2580   -3.5840   -6.9190 c3        1 LPP     -0.082400
     35 C35         5.0230   -3.2710   -8.1880 c3        1 LPP     -0.076400
     36 C36         6.4970   -3.5810   -8.0330 c3        1 LPP     -0.080400
     37 C37         7.2650   -3.2600   -9.2980 c3        1 LPP     -0.077400
     38 C38         8.7390   -3.5700   -9.1410 c3        1 LPP     -0.079400
     39 C39         9.5080   -3.2480  -10.4050 c3        1 LPP     -0.078400
     40 C40        10.9810   -3.5580  -10.2470 c3        1 LPP     -0.079400
     41 C41        11.7500   -3.2360  -11.5110 c3        1 LPP     -0.078400
     42 C42        13.2230   -3.5460  -11.3530 c3        1 LPP     -0.079400
     43 C43        13.9930   -3.2240  -12.6160 c3        1 LPP     -0.080400
     44 C44        15.4610   -3.5300  -12.4630 c3        1 LPP     -0.091100
     45 HC61       -0.2740   -0.8100   -0.2710 h1        1 LPP      0.012700
     46 HC62       -1.0820    0.3950   -1.4260 h1        1 LPP      0.012700
     47 HC7        -2.8520   -0.9050   -0.6490 h1        1 LPP      0.023700
     48 HC81       -2.6340   -0.7270   -3.2510 h1        1 LPP      0.042700
     49 HC82       -3.7910   -1.9890   -2.5610 h1        1 LPP      0.042700
     50 H121       -1.2620   -4.6680    0.6750 hc        1 LPP      0.084200
     51 H122       -2.5240   -5.5000   -0.3250 hc        1 LPP      0.084200
     52 H131       -4.2270   -5.0560    1.5270 hc        1 LPP      0.047200
     53 H132       -2.9060   -4.3460    2.5320 hc        1 LPP      0.047200
     54 H141       -2.9630   -7.2350    1.4070 hc        1 LPP      0.040700
     55 H142       -1.6290   -6.5180    2.3910 hc        1 LPP      0.040700
     56 H151       -3.2440   -6.0990    4.2760 hc        1 LPP      0.036700
     57 H152       -4.5800   -6.8100    3.2920 hc        1 LPP      0.036700
     58 H161       -1.9840   -8.2730    4.1380 hc        1 LPP      0.039200
     59 H162       -3.3180   -8.9860    3.1540 hc        1 LPP      0.039200
     60 H171       -4.9340   -8.5650    5.0390 hc        1 LPP      0.037200
     61 H172       -3.6000   -7.8510    6.0230 hc        1 LPP      0.037200
     62 H181       -2.3370  -10.0250    5.8870 hc        1 LPP      0.039200
     63 H182       -3.6690  -10.7390    4.9010 hc        1 LPP      0.039200
     64 H191       -5.2880  -10.3190    6.7850 hc        1 LPP      0.037700
     65 H192       -3.9560   -9.6040    7.7700 hc        1 LPP      0.037700
     66 H201       -4.0200  -12.4920    6.6490 hc        1 LPP      0.038700
     67 H202       -2.6890  -11.7760    7.6360 hc        1 LPP      0.038700
     68 H211       -4.3100  -11.3570    9.5180 hc        1 LPP      0.038200
     69 H212       -5.6410  -12.0720    8.5310 hc        1 LPP      0.038200
     70 H221       -4.3720  -14.2450    8.3960 hc        1 LPP      0.039200
     71 H222       -3.0420  -13.5280    9.3840 hc        1 LPP      0.039200
     72 H231       -4.6640  -13.1090   11.2650 hc        1 LPP      0.038200
     73 H232       -5.9950  -13.8260   10.2770 hc        1 LPP      0.038200
     74 H241       -3.3950  -15.2800   11.1310 hc        1 LPP      0.039200
     75 H242       -4.7250  -15.9980   10.1440 hc        1 LPP      0.039200
     76 H251       -5.0160  -14.8600   13.0100 hc        1 LPP      0.037700
     77 H252       -6.3460  -15.5770   12.0230 hc        1 LPP      0.037700
     78 H261       -5.0960  -17.7610   11.9210 hc        1 LPP      0.030367
     79 H262       -3.7630  -17.0420   12.9100 hc        1 LPP      0.030367
     80 H263       -5.4130  -17.2450   13.6280 hc        1 LPP      0.030367
     81 H301        0.6620   -2.7030   -3.7580 hc        1 LPP      0.152700
     82 H302       -0.2160   -4.2620   -4.1590 hc        1 LPP      0.152700
     83 H311        0.4590   -2.1730   -6.3400 hc        1 LPP      0.013200
     84 H312        0.0590   -3.9170   -6.5890 hc        1 LPP      0.013200
     85 H321        2.4830   -2.9360   -4.9230 hc        1 LPP      0.090200
     86 H322        2.1540   -4.6240   -5.5010 hc        1 LPP      0.090200
     87 H331        2.6590   -2.1910   -7.3470 hc        1 LPP      0.016700
     88 H332        2.3510   -3.8820   -7.9020 hc        1 LPP      0.016700
     89 H341        4.3880   -4.6680   -6.6600 hc        1 LPP      0.048700
     90 H342        4.6750   -2.9870   -6.0640 hc        1 LPP      0.048700
     91 H351        4.8930   -2.1860   -8.4430 hc        1 LPP      0.029200
     92 H352        4.6010   -3.8640   -9.0410 hc        1 LPP      0.029200
     93 H361        6.6280   -4.6650   -7.7780 hc        1 LPP      0.040700
     94 H362        6.9150   -2.9880   -7.1770 hc        1 LPP      0.040700
     95 H371        7.1340   -2.1750   -9.5500 hc        1 LPP      0.033700
     96 H372        6.8450   -3.8520  -10.1540 hc        1 LPP      0.033700
     97 H381        9.1570   -2.9780   -8.2850 hc        1 LPP      0.039700
     98 H382        8.8690   -4.6550   -8.8870 hc        1 LPP      0.039700
     99 H391        9.3770   -2.1630  -10.6570 hc        1 LPP      0.036200
    100 H392        9.0880   -3.8400  -11.2610 hc        1 LPP      0.036200
    101 H401       11.3990   -2.9670   -9.3910 hc        1 LPP      0.039200
    102 H402       11.1110   -4.6430   -9.9940 hc        1 LPP      0.039200
    103 H411       11.6190   -2.1510  -11.7630 hc        1 LPP      0.037200
    104 H412       11.3310   -3.8270  -12.3670 hc        1 LPP      0.037200
    105 H421       13.3540   -4.6310  -11.1000 hc        1 LPP      0.039200
    106 H422       13.6420   -2.9540  -10.4970 hc        1 LPP      0.039200
    107 H431       13.8590   -2.1380  -12.8680 hc        1 LPP      0.036700
    108 H432       13.5720   -3.8150  -13.4710 hc        1 LPP      0.036700
    109 H441       15.6160   -4.6120  -12.2350 hc        1 LPP      0.029367
    110 H442       16.0100   -3.2860  -13.4040 hc        1 LPP      0.029367
    111 H443       15.9030   -2.9310  -11.6310 hc        1 LPP      0.029367
@<TRIPOS>BOND
     1    1    2 1   
     2    1    3 1   
     3    1    4 1   
     4    1    5 1   
     5    5    6 1   
     6    6    7 1   
     7    6   45 1   
     8    6   46 1   
     9    7    8 1   
    10    7    9 1   
    11    7   47 1   
    12    8   10 1   
    13    8   48 1   
    14    8   49 1   
    15    9   11 1   
    16   10   28 1   
    17   11   12 2   
    18   11   13 1   
    19   13   14 1   
    20   13   50 1   
    21   13   51 1   
    22   14   15 1   
    23   14   52 1   
    24   14   53 1   
    25   15   16 1   
    26   15   54 1   
    27   15   55 1   
    28   16   17 1   
    29   16   56 1   
    30   16   57 1   
    31   17   18 1   
    32   17   58 1   
    33   17   59 1   
    34   18   19 1   
    35   18   60 1   
    36   18   61 1   
    37   19   20 1   
    38   19   62 1   
    39   19   63 1   
    40   20   21 1   
    41   20   64 1   
    42   20   65 1   
    43   21   22 1   
    44   21   66 1   
    45   21   67 1   
    46   22   23 1   
    47   22   68 1   
    48   22   69 1   
    49   23   24 1   
    50   23   70 1   
    51   23   71 1   
    52   24   25 1   
    53   24   72 1   
    54   24   73 1   
    55   25   26 1   
    56   25   74 1   
    57   25   75 1   
    58   26   27 1   
    59   26   76 1   
    60   26   77 1   
    61   27   78 1   
    62   27   79 1   
    63   27   80 1   
    64   28   29 2   
    65   28   30 1   
    66   30   31 1   
    67   30   81 1   
    68   30   82 1   
    69   31   32 1   
    70   31   83 1   
    71   31   84 1   
    72   32   33 1   
    73   32   85 1   
    74   32   86 1   
    75   33   34 1   
    76   33   87 1   
    77   33   88 1   
    78   34   35 1   
    79   34   89 1   
    80   34   90 1   
    81   35   36 1   
    82   35   91 1   
    83   35   92 1   
    84   36   37 1   
    85   36   93 1   
    86   36   94 1   
    87   37   38 1   
    88   37   95 1   
    89   37   96 1   
    90   38   39 1   
    91   38   97 1   
    92   38   98 1   
    93   39   40 1   
    94   39   99 1   
    95   39  100 1   
    96   40   41 1   
    97   40  101 1   
    98   40  102 1   
    99   41   42 1   
   100   41  103 1   
   101   41  104 1   
   102   42   43 1   
   103   42  105 1   
   104   42  106 1   
   105   43   44 1   
   106   43  107 1   
   107   43  108 1   
   108   44  109 1   
   109   44  110 1   
   110   44  111 1   
@<TRIPOS>SUBSTRUCTURE
     1 LPP         1 TEMP              0 ****  ****    0 ROOT
