@<TRIPOS>MOLECULE
molecule
  111   110     1     0     0
SMALL
bcc


@<TRIPOS>ATOM
      1 P1           0.0000     0.0000     0.0000 p5         1 LPP       1.149900
      2 O2           1.6100     0.0000     0.0000 o          1 LPP      -0.910167
      3 O3          -0.4920     0.0000     1.3940 o          1 LPP      -0.910167
      4 O4          -0.5360     1.3160    -0.7580 o          1 LPP      -0.910167
      5 O5          -0.5380    -1.3130    -0.7590 os         1 LPP      -0.523200
      6 C6          -1.9640    -1.2540    -0.7260 c3         1 LPP       0.142400
      7 C7          -2.5410    -2.4800    -1.4350 c3         1 LPP       0.145100
      8 C8          -2.0660    -2.5000    -2.8880 c3         1 LPP       0.173400
      9 O9          -2.0900    -3.6860    -0.7620 os         1 LPP      -0.401900
     10 O27         -0.6160    -2.5600    -2.9230 os         1 LPP      -0.338900
     11 C11         -2.8130    -4.2050     0.2420 c          1 LPP       0.645100
     12 O10         -3.8410    -3.6690     0.5870 o          1 LPP      -0.584000
     13 C12         -2.3460    -5.4560     0.9400 c3         1 LPP      -0.126400
     14 C13         -3.3440    -5.8310     2.0370 c3         1 LPP      -0.071400
     15 C14         -2.8680    -7.1010     2.7460 c3         1 LPP      -0.084400
     16 C15         -3.8670    -7.4780     3.8430 c3         1 LPP      -0.080400
     17 C16         -3.3920    -8.7460     4.5520 c3         1 LPP      -0.082400
     18 C17         -4.3910    -9.1220     5.6490 c3         1 LPP      -0.082400
     19 C18         -3.9150   -10.3920     6.3570 c3         1 LPP      -0.082400
     20 C19         -4.9140   -10.7680     7.4540 c3         1 LPP      -0.082400
     21 C20         -4.4390   -12.0380     8.1620 c3         1 LPP      -0.082400
     22 C21         -5.4370   -12.4140     9.2590 c3         1 LPP      -0.082400
     23 C22         -4.9620   -13.6840     9.9680 c3         1 LPP      -0.082400
     24 C23         -5.9600   -14.0600    11.0640 c3         1 LPP      -0.082400
     25 C24         -5.4850   -15.3300    11.7740 c3         1 LPP      -0.082400
     26 C25         -6.4840   -15.7050    12.8700 c3         1 LPP      -0.084400
     27 C26         -6.0080   -16.9750    13.5790 c3         1 LPP      -0.092100
     28 C29          0.0280    -2.5860    -4.1010 c          1 LPP       0.648100
     29 O28         -0.6010    -2.5600    -5.1330 o          1 LPP      -0.624000
     30 C30          1.5320    -2.6470    -4.1360 c3         1 LPP      -0.126400
     31 C31          2.0080    -2.6670    -5.5900 c3         1 LPP      -0.071400
     32 C32          3.5370    -2.7290    -5.6260 c3         1 LPP      -0.084400
     33 C33          4.0110    -2.7490    -7.0810 c3         1 LPP      -0.080400
     34 C34          5.5390    -2.8110    -7.1160 c3         1 LPP      -0.082400
     35 C35          6.0150    -2.8290    -8.5710 c3         1 LPP      -0.082400
     36 C36          7.5420    -2.8930    -8.6080 c3         1 LPP      -0.082400
     37 C37          8.0180    -2.9120   -10.0610 c3         1 LPP      -0.082400
     38 C38          9.5470    -2.9750   -10.0980 c3         1 LPP      -0.082400
     39 C39         10.0230    -2.9940   -11.5510 c3         1 LPP      -0.082400
     40 C40         11.5500    -3.0560   -11.5870 c3         1 LPP      -0.082400
     41 C41         12.0260    -3.0760   -13.0410 c3         1 LPP      -0.082400
     42 C42         13.5540    -3.1380   -13.0780 c3         1 LPP      -0.081400
     43 C43         14.0290    -3.1580   -14.5320 c3         1 LPP      -0.084400
     44 C44         15.5580    -3.2200   -14.5680 c3         1 LPP      -0.092100
     45 HC61        -2.3010    -1.2400     0.3030 h1         1 LPP       0.056700
     46 HC62        -2.3000    -0.3550    -1.2290 h1         1 LPP       0.056700
     47 HC7         -3.6240    -2.4360    -1.4090 h1         1 LPP       0.044700
     48 HC81        -2.4760    -3.3690    -3.3900 h1         1 LPP       0.033200
     49 HC82        -2.4030    -1.6010    -3.3900 h1         1 LPP       0.033200
     50 H121        -2.2770    -6.2650     0.2230 hc         1 LPP       0.067200
     51 H122        -1.3730    -5.2810     1.3820 hc         1 LPP       0.067200
     52 H131        -3.4140    -5.0220     2.7540 hc         1 LPP       0.057200
     53 H132        -4.3170    -6.0070     1.5950 hc         1 LPP       0.057200
     54 H141        -1.8950    -6.9240     3.1890 hc         1 LPP       0.037200
     55 H142        -2.7970    -7.9100     2.0290 hc         1 LPP       0.037200
     56 H151        -3.9380    -6.6690     4.5600 hc         1 LPP       0.042200
     57 H152        -4.8400    -7.6540     3.4000 hc         1 LPP       0.042200
     58 H161        -2.4190    -8.5700     4.9940 hc         1 LPP       0.038700
     59 H162        -3.3210    -9.5550     3.8350 hc         1 LPP       0.038700
     60 H171        -5.3640    -9.2990     5.2060 hc         1 LPP       0.040700
     61 H172        -4.4610    -8.3130     6.3660 hc         1 LPP       0.040700
     62 H181        -3.8440   -11.2010     5.6400 hc         1 LPP       0.039700
     63 H182        -2.9420   -10.2160     6.8000 hc         1 LPP       0.039700
     64 H191        -5.8870   -10.9430     7.0120 hc         1 LPP       0.040200
     65 H192        -4.9840    -9.9590     8.1720 hc         1 LPP       0.040200
     66 H201        -4.3690   -12.8460     7.4450 hc         1 LPP       0.040200
     67 H202        -3.4660   -11.8620     8.6050 hc         1 LPP       0.040200
     68 H211        -6.4100   -12.5910     8.8160 hc         1 LPP       0.040700
     69 H212        -5.5080   -11.6050     9.9760 hc         1 LPP       0.040700
     70 H221        -3.9890   -13.5080    10.4110 hc         1 LPP       0.040200
     71 H222        -4.8910   -14.4930     9.2510 hc         1 LPP       0.040200
     72 H231        -6.0310   -13.2510    11.7810 hc         1 LPP       0.040200
     73 H232        -6.9330   -14.2360    10.6220 hc         1 LPP       0.040200
     74 H241        -5.4150   -16.1390    11.0570 hc         1 LPP       0.040200
     75 H242        -4.5120   -15.1540    12.2160 hc         1 LPP       0.040200
     76 H251        -6.5540   -14.8960    13.5870 hc         1 LPP       0.039200
     77 H252        -7.4570   -15.8820    12.4270 hc         1 LPP       0.039200
     78 H261        -5.0350   -16.7990    14.0210 hc         1 LPP       0.030700
     79 H262        -5.9370   -17.7840    12.8620 hc         1 LPP       0.030700
     80 H263        -6.7150   -17.2420    14.3550 hc         1 LPP       0.030700
     81 H301         1.8690    -3.5460    -3.6340 hc         1 LPP       0.089700
     82 H302         1.9410    -1.7790    -3.6340 hc         1 LPP       0.089700
     83 H311         1.5990    -3.5360    -6.0920 hc         1 LPP       0.046200
     84 H312         1.6710    -1.7680    -6.0920 hc         1 LPP       0.046200
     85 H321         3.8730    -3.6280    -5.1240 hc         1 LPP       0.046200
     86 H322         3.9450    -1.8600    -5.1250 hc         1 LPP       0.046200
     87 H331         3.6750    -1.8500    -7.5830 hc         1 LPP       0.036700
     88 H332         3.6030    -3.6180    -7.5820 hc         1 LPP       0.036700
     89 H341         5.8760    -3.7100    -6.6150 hc         1 LPP       0.042200
     90 H342         5.9480    -1.9430    -6.6140 hc         1 LPP       0.042200
     91 H351         5.6790    -1.9300    -9.0720 hc         1 LPP       0.037700
     92 H352         5.6050    -3.6970    -9.0740 hc         1 LPP       0.037700
     93 H361         7.8780    -3.7920    -8.1060 hc         1 LPP       0.041200
     94 H362         7.9520    -2.0250    -8.1050 hc         1 LPP       0.041200
     95 H371         7.6820    -2.0130   -10.5630 hc         1 LPP       0.038700
     96 H372         7.6090    -3.7800   -10.5630 hc         1 LPP       0.038700
     97 H381         9.9560    -2.1060    -9.5950 hc         1 LPP       0.041200
     98 H382         9.8830    -3.8740    -9.5960 hc         1 LPP       0.041200
     99 H391         9.6870    -2.0950   -12.0530 hc         1 LPP       0.039700
    100 H392         9.6140    -3.8620   -12.0530 hc         1 LPP       0.039700
    101 H401        11.9590    -2.1880   -11.0850 hc         1 LPP       0.040700
    102 H402        11.8860    -3.9560   -11.0860 hc         1 LPP       0.040700
    103 H411        11.6170    -3.9440   -13.5430 hc         1 LPP       0.039700
    104 H412        11.6890    -2.1760   -13.5430 hc         1 LPP       0.039700
    105 H421        13.9640    -2.2700   -12.5760 hc         1 LPP       0.040700
    106 H422        13.8910    -4.0370   -12.5750 hc         1 LPP       0.040700
    107 H431        13.6920    -2.2600   -15.0350 hc         1 LPP       0.039200
    108 H432        13.6210    -4.0270   -15.0340 hc         1 LPP       0.039200
    109 H441        15.8940    -3.2340   -15.5980 hc         1 LPP       0.030700
    110 H442        15.8950    -4.1180   -14.0650 hc         1 LPP       0.030700
    111 H443        15.9660    -2.3500   -14.0670 hc         1 LPP       0.030700
@<TRIPOS>BOND
     1     1     2 1
     2     1     3 1
     3     1     4 1
     4     1     5 1
     5     5     6 1
     6     6     7 1
     7     6    45 1
     8     6    46 1
     9     7     8 1
    10     7     9 1
    11     7    47 1
    12     8    10 1
    13     8    48 1
    14     8    49 1
    15     9    11 1
    16    10    28 1
    17    11    12 2
    18    11    13 1
    19    13    14 1
    20    13    50 1
    21    13    51 1
    22    14    15 1
    23    14    52 1
    24    14    53 1
    25    15    16 1
    26    15    54 1
    27    15    55 1
    28    16    17 1
    29    16    56 1
    30    16    57 1
    31    17    18 1
    32    17    58 1
    33    17    59 1
    34    18    19 1
    35    18    60 1
    36    18    61 1
    37    19    20 1
    38    19    62 1
    39    19    63 1
    40    20    21 1
    41    20    64 1
    42    20    65 1
    43    21    22 1
    44    21    66 1
    45    21    67 1
    46    22    23 1
    47    22    68 1
    48    22    69 1
    49    23    24 1
    50    23    70 1
    51    23    71 1
    52    24    25 1
    53    24    72 1
    54    24    73 1
    55    25    26 1
    56    25    74 1
    57    25    75 1
    58    26    27 1
    59    26    76 1
    60    26    77 1
    61    27    78 1
    62    27    79 1
    63    27    80 1
    64    28    29 2
    65    28    30 1
    66    30    31 1
    67    30    81 1
    68    30    82 1
    69    31    32 1
    70    31    83 1
    71    31    84 1
    72    32    33 1
    73    32    85 1
    74    32    86 1
    75    33    34 1
    76    33    87 1
    77    33    88 1
    78    34    35 1
    79    34    89 1
    80    34    90 1
    81    35    36 1
    82    35    91 1
    83    35    92 1
    84    36    37 1
    85    36    93 1
    86    36    94 1
    87    37    38 1
    88    37    95 1
    89    37    96 1
    90    38    39 1
    91    38    97 1
    92    38    98 1
    93    39    40 1
    94    39    99 1
    95    39   100 1
    96    40    41 1
    97    40   101 1
    98    40   102 1
    99    41    42 1
   100    41   103 1
   101    41   104 1
   102    42    43 1
   103    42   105 1
   104    42   106 1
   105    43    44 1
   106    43   107 1
   107    43   108 1
   108    44   109 1
   109    44   110 1
   110    44   111 1
@<TRIPOS>SUBSTRUCTURE
     1 LPP         1 TEMP              0 ****  ****    0 ROOT
