@<TRIPOS>MOLECULE
molecule
   83    88     1     0     0
SMALL
bcc


@<TRIPOS>ATOM
      1 C1           0.0000     0.0000     0.0000 c3         1 LPQ      -0.075400
      2 C2           1.5300     0.0000     0.0000 c3         1 LPQ       0.154800
      3 N3           2.0210     0.0000     1.3840 n7         1 LPQ      -0.821200
      4 C4           1.5870    -1.2060     2.1010 c3         1 LPQ       0.148800
      5 C5           0.0590    -1.2430     2.1630 c3         1 LPQ      -0.134700
      6 C6          -0.5050    -1.2420     0.7390 c3         1 LPQ       0.003600
      7 C7          -2.0110    -1.2170     0.7950 ca         1 LPQ      -0.234600
      8 C8          -2.6690    -0.1740     1.4160 ca         1 LPQ       0.457200
      9 N9          -3.9870    -0.1430     1.4690 nb         1 LPQ      -0.777000
     10 C10         -4.7270    -1.1010     0.9360 ca         1 LPQ       0.652600
     11 C11         -4.1320    -2.1800     0.2960 ca         1 LPQ      -0.269300
     12 C12         -2.7510    -2.2390     0.2170 ca         1 LPQ      -0.029000
     13 O13         -6.0790    -1.0280     1.0150 os         1 LPQ      -0.435100
     14 C14         -6.6300     0.1070     1.6860 c3         1 LPQ       0.152400
     15 C15         -0.3860    -2.4920     2.8800 c          1 LPQ       0.674100
     16 O16         -1.0880    -3.3000     2.3100 o          1 LPQ      -0.605100
     17 N17         -0.0030    -2.7100     4.1540 n          1 LPQ      -0.452800
     18 C18         -8.1580     0.0140     1.6740 c3         1 LPQ       0.141400
     19 O19         -8.5720    -1.1170     2.4430 os         1 LPQ      -0.330900
     20 C20         -9.9090    -1.3450     2.5350 ca         1 LPQ       0.116100
     21 C21        -10.5440    -2.1470     1.5970 ca         1 LPQ       0.017400
     22 C22        -11.9040    -2.3760     1.6930 ca         1 LPQ      -0.115500
     23 C23        -12.6310    -1.8070     2.7210 ca         1 LPQ      -0.072300
     24 C24        -12.0020    -1.0070     3.6560 ca         1 LPQ      -0.115500
     25 C25        -10.6410    -0.7790     3.5690 ca         1 LPQ       0.017400
     26 Cl26        -9.6320    -2.8620     0.3040 cl         1 LPQ      -0.083400
     27 Cl27        -9.8490     0.2190     4.7480 cl         1 LPQ      -0.083400
     28 C28        -14.1140    -2.0600     2.8230 c3         1 LPQ      -0.046800
     29 C29         -0.4990    -3.8840     4.8760 c3         1 LPQ       0.156300
     30 C30          0.9090    -1.7740     4.8150 cx         1 LPQ       0.038700
     31 C31         -1.9640    -3.7030     5.1820 ca         1 LPQ      -0.110300
     32 C32         -2.9150    -4.3530     4.4190 ca         1 LPQ      -0.059000
     33 C33         -4.2590    -4.1880     4.6990 ca         1 LPQ      -0.085300
     34 C34         -4.6520    -3.3700     5.7420 ca         1 LPQ      -0.109000
     35 C35         -3.7020    -2.7190     6.5050 ca         1 LPQ      -0.129000
     36 C36         -2.3570    -2.8900     6.2300 ca         1 LPQ       0.038400
     37 Cl37        -1.1630    -2.0780     7.1950 cl         1 LPQ      -0.117400
     38 C38         -5.2940    -4.8970     3.8660 c3         1 LPQ       0.203100
     39 N39         -5.5850    -6.2100     4.4590 n7         1 LPQ      -0.782200
     40 C40          2.3140    -2.2780     5.1540 cx         1 LPQ      -0.154900
     41 C41          1.2870    -2.0640     6.2690 cx         1 LPQ      -0.154900
     42 C42         -6.5930    -6.9320     3.6720 cx         1 LPQ       0.091500
     43 C43         -7.4300    -7.9890     4.3960 cx         1 LPQ      -0.141400
     44 C44         -6.3480    -8.4180     3.4030 cx         1 LPQ      -0.141400
     45 H1          -0.3610     0.8900     0.5020 hc         1 LPQ       0.053700
     46 H1A         -0.3600    -0.0170    -1.0210 hc         1 LPQ       0.053700
     47 H2           1.8900    -0.8860    -0.5090 h1         1 LPQ       0.034200
     48 H2A          1.8900     0.8860    -0.5090 h1         1 LPQ       0.034200
     49 HN3          3.0200     0.0470     1.3840 hn         1 LPQ       0.355800
     50 H4           1.9470    -2.0840     1.5780 h1         1 LPQ       0.045700
     51 H4A          1.9880    -1.1890     3.1070 h1         1 LPQ       0.045700
     52 H5          -0.3010    -0.3690     2.6930 hc         1 LPQ       0.083700
     53 H6          -0.1720    -2.1310     0.2190 hc         1 LPQ       0.067700
     54 H8          -2.0960     0.6300     1.8640 h4         1 LPQ       0.022100
     55 H11         -4.7400    -2.9620    -0.1420 ha         1 LPQ       0.148000
     56 H12         -2.2590    -3.0690    -0.2760 ha         1 LPQ       0.148000
     57 H14         -6.2770     0.1280     2.7100 h1         1 LPQ       0.060200
     58 H14A        -6.3200     1.0130     1.1790 h1         1 LPQ       0.060200
     59 H18         -8.5780     0.9150     2.1040 h1         1 LPQ       0.045700
     60 H18A        -8.5050    -0.0960     0.6540 h1         1 LPQ       0.045700
     61 H22        -12.4000    -3.0020     0.9610 ha         1 LPQ       0.150000
     62 H24        -12.5740    -0.5640     4.4620 ha         1 LPQ       0.150000
     63 H28        -14.3430    -3.0360     2.4140 hc         1 LPQ       0.049033
     64 H28A       -14.4150    -2.0240     3.8630 hc         1 LPQ       0.049033
     65 H28B       -14.6480    -1.3000     2.2660 hc         1 LPQ       0.049033
     66 H29         -0.3650    -4.7680     4.2650 h1         1 LPQ       0.068200
     67 H29A         0.0510    -3.9980     5.8020 h1         1 LPQ       0.068200
     68 H30          0.8530    -0.7220     4.5630 h1         1 LPQ       0.106700
     69 H32         -2.6070    -4.9940     3.6010 ha         1 LPQ       0.159000
     70 H34         -5.7050    -3.2380     5.9600 ha         1 LPQ       0.137000
     71 H35         -4.0100    -2.0800     7.3240 ha         1 LPQ       0.142000
     72 H38         -6.2010    -4.3060     3.8370 h1         1 LPQ       0.049200
     73 H38A        -4.9180    -5.0310     2.8590 h1         1 LPQ       0.049200
     74 HN39        -5.9170    -6.0870     5.3950 hn         1 LPQ       0.356800
     75 H40          2.5160    -3.3100     4.8960 hc         1 LPQ       0.083450
     76 H40A         3.1030    -1.5370     5.0970 hc         1 LPQ       0.083450
     77 H41          1.4490    -1.1940     6.8920 hc         1 LPQ       0.083450
     78 H41A         0.8620    -2.9670     6.6910 hc         1 LPQ       0.083450
     79 H42         -7.1130    -6.4070     2.8800 h1         1 LPQ       0.078700
     80 H43         -8.4510    -8.0940     4.0490 hc         1 LPQ       0.075700
     81 H43A        -7.1900    -8.1390     5.4410 hc         1 LPQ       0.075700
     82 H44         -6.7080    -8.7860     2.4490 hc         1 LPQ       0.075700
     83 H44A        -5.4480    -8.8300     3.8420 hc         1 LPQ       0.075700
@<TRIPOS>BOND
     1     1     2 1
     2     1     6 1
     3     2     3 1
     4     3     4 1
     5     4     5 1
     6     5     6 1
     7     5    15 1
     8     6     7 1
     9     7     8 ar
    10     7    12 ar
    11     8     9 ar
    12     9    10 ar
    13    10    11 ar
    14    10    13 1
    15    11    12 ar
    16    13    14 1
    17    14    18 1
    18    15    16 2
    19    15    17 1
    20    17    29 1
    21    17    30 1
    22    18    19 1
    23    19    20 1
    24    20    21 ar
    25    20    25 ar
    26    21    22 ar
    27    21    26 1
    28    22    23 ar
    29    23    24 ar
    30    23    28 1
    31    24    25 ar
    32    25    27 1
    33    29    31 1
    34    30    40 1
    35    30    41 1
    36    31    32 ar
    37    31    36 ar
    38    32    33 ar
    39    33    34 ar
    40    33    38 1
    41    34    35 ar
    42    35    36 ar
    43    36    37 1
    44    38    39 1
    45    39    42 1
    46    40    41 1
    47    42    43 1
    48    42    44 1
    49    43    44 1
    50     1    45 1
    51     1    46 1
    52     2    47 1
    53     2    48 1
    54     3    49 1
    55     4    50 1
    56     4    51 1
    57     5    52 1
    58     6    53 1
    59     8    54 1
    60    11    55 1
    61    12    56 1
    62    14    57 1
    63    14    58 1
    64    18    59 1
    65    18    60 1
    66    22    61 1
    67    24    62 1
    68    28    63 1
    69    28    64 1
    70    28    65 1
    71    29    66 1
    72    29    67 1
    73    30    68 1
    74    32    69 1
    75    34    70 1
    76    35    71 1
    77    38    72 1
    78    38    73 1
    79    39    74 1
    80    40    75 1
    81    40    76 1
    82    41    77 1
    83    41    78 1
    84    42    79 1
    85    43    80 1
    86    43    81 1
    87    44    82 1
    88    44    83 1
@<TRIPOS>SUBSTRUCTURE
     1 LPQ         1 TEMP              0 ****  ****    0 ROOT
