@<TRIPOS>MOLECULE
LPR
   60    55     1     0     0
SMALL
bcc


@<TRIPOS>ATOM
      1 O2         -2.7470    0.5400    2.1670 o         1 LPR     -0.447000
      2 O3         -2.9010    2.6340    1.4270 oh        1 LPR     -0.375000
      3 C3         -2.1950    1.5130    1.6240 c2        1 LPR      0.282000
      4 C4         -0.7610    1.5720    1.1330 c3        1 LPR     -0.088000
      5 C14         6.4200   -3.7650    2.9320 c3        1 LPR     -0.182000
      6 C15         5.6770   -2.6230    3.6240 c3        1 LPR     -0.142000
      7 C16         4.2590   -3.0730    3.7920 c2        1 LPR     -0.122000
      8 C17         3.2730   -2.3140    4.2610 c2        1 LPR     -0.213000
      9 C18         6.0090   -7.2290    1.8110 c1        1 LPR      0.159000
     10 C19         5.7370   -6.0890    2.2980 c1        1 LPR     -0.601000
     11 C20         5.4550   -4.8990    2.8060 c2        1 LPR      0.261000
     12 C21         4.1160   -4.4920    3.3370 c3        1 LPR     -0.153000
     13 HB         -0.2640    2.4600    1.6280 h1        1 LPR      0.126000
     14 H141       -0.7980    1.7650    0.0230 h1        1 LPR      0.126000
     15 H142        6.7780   -3.4590    1.9140 hc        1 LPR      0.123000
     16 H151        6.1330   -2.4030    4.6230 hc        1 LPR      0.117000
     17 H152        5.7250   -1.6760    3.0230 hc        1 LPR      0.117000
     18 H17         3.4380   -1.2670    4.5570 ha        1 LPR      0.126500
     19 H18         2.2450   -2.6830    4.3670 ha        1 LPR      0.126500
     20 H19         7.3200   -4.0860    3.5190 hc        1 LPR      0.123000
     21 H20         3.8160   -5.1650    4.1840 hc        1 LPR      0.129000
     22 H21         3.3340   -4.5910    2.5380 hc        1 LPR      0.129000
     23 N1          0.0340    0.4030    1.3750 n3        1 LPR     -0.338000
     24 N3         -5.5500    1.0320    2.8660 n3        1 LPR     -0.202000
     25 C1          2.3430    3.4210    2.7200 c2        1 LPR     -0.011000
     26 C2          1.3220    4.3690    2.5450 c1        1 LPR     -0.152000
     27 O1          1.9400    2.1350    3.0160 oh        1 LPR     -0.245000
     28 C10         0.4150    5.1390    2.4010 c1        1 LPR     -0.093000
     29 C11        -0.6660    6.0640    2.2320 c3        1 LPR     -0.059000
     30 C12        -1.5320    5.7320    1.0370 c3        1 LPR     -0.221000
     31 C13        -5.4210    2.2220    2.3820 c1        1 LPR     -0.220000
     32 H1         -0.4030   -0.4150    0.9980 hn        1 LPR      0.157000
     33 H3N1       -6.3800    0.6460    3.2670 hn        1 LPR      0.214000
     34 H3N2       -4.7550    0.4150    2.8490 hn        1 LPR      0.214000
     35 HA          2.2380    1.5530    2.2900 ho        1 LPR      0.242000
     36 H101        1.2320    0.3940    4.4050 ha        1 LPR      0.004000
     37 H102        1.6090   -0.0640    4.0740 ha        1 LPR      0.004000
     38 H111       -1.2990    6.0590    3.1660 hc        1 LPR      0.102000
     39 H112       -0.2450    7.1030    2.1210 hc        1 LPR      0.102000
     40 H121       -0.9360    5.7710    0.0940 hc        1 LPR      0.090000
     41 H122       -1.9720    4.7080    1.1370 hc        1 LPR      0.090000
     42 H131       -6.2940    2.9000    2.4010 ha        1 LPR      0.073000
     43 H132       -2.3640    6.4730    0.9630 hc        1 LPR      0.090000
     44 O4          5.4980    0.6560    3.0430 o         1 LPR     -0.346000
     45 O5          3.7600    1.0290    4.2860 oh        1 LPR     -0.306000
     46 N2          3.6590    3.7470    2.7560 n3        1 LPR      0.114000
     47 C5          4.6840    2.8890    2.9340 c2        1 LPR     -0.436000
     48 C6          7.6620    4.3800    1.5920 c1        1 LPR     -0.222500
     49 C7          7.5440    5.5690    1.6300 c1        1 LPR     -0.222500
     50 C8          3.9980    5.1410    2.4670 c3        1 LPR     -0.126000
     51 C9          4.6650    1.5080    3.3810 c2        1 LPR      0.365000
     52 H5          3.1920    1.7370    4.6230 ho        1 LPR      0.241000
     53 H6          7.7730    3.3230    1.5540 ha        1 LPR      0.225000
     54 H62         5.6950    3.2630    2.6850 h4        1 LPR      0.184000
     55 H7          5.0950    5.2380    2.2380 h1        1 LPR      0.121667
     56 H72         7.4560    6.6260    1.6610 ha        1 LPR      0.225000
     57 H8C1        3.4020    5.5010    1.5870 h1        1 LPR      0.121667
     58 H8C2        3.7460    5.7610    3.3680 h1        1 LPR      0.121667
     59 H12         0.1780    0.2680    2.3600 hn        1 LPR      0.157000
     60 H33        -3.8640    2.5450    1.7690 ho        1 LPR      0.315000
@<TRIPOS>BOND
     1    1    3 1   
     2    2    3 1   
     3    2   60 1   
     4    3    4 1   
     5    4   13 1   
     6    4   14 1   
     7    4   23 1   
     8    5    6 1   
     9    5   11 1   
    10    5   15 1   
    11    5   20 1   
    12    6    7 1   
    13    6   16 1   
    14    6   17 1   
    15    7    8 1   
    16    7   12 1   
    17    8   18 1   
    18    8   19 1   
    19    9   10 1   
    20   10   11 1   
    21   11   12 1   
    22   12   21 1   
    23   12   22 1   
    24   23   32 1   
    25   23   59 1   
    26   24   31 1   
    27   24   33 1   
    28   24   34 1   
    29   25   26 1   
    30   25   27 1   
    31   25   46 1   
    32   26   28 1   
    33   27   35 1   
    34   28   29 1   
    35   29   30 1   
    36   29   38 1   
    37   29   39 1   
    38   30   40 1   
    39   30   41 1   
    40   30   43 1   
    41   31   42 1   
    42   36   37 1   
    43   44   51 1   
    44   45   51 1   
    45   45   52 1   
    46   46   47 1   
    47   46   50 1   
    48   47   51 1   
    49   47   54 1   
    50   48   49 1   
    51   48   53 1   
    52   49   56 1   
    53   50   55 1   
    54   50   57 1   
    55   50   58 1   
@<TRIPOS>SUBSTRUCTURE
     1 LPR         1 TEMP              0 ****  ****    0 ROOT
