@<TRIPOS>MOLECULE
LPW
   47    49     1     0     0
SMALL
bcc


@<TRIPOS>ATOM
      1 O3           0.0000     0.0000     0.0000 o          1 LPW      -0.617100
      2 C24          1.2130     0.0000     0.0000 c          1 LPW       0.608100
      3 N1           1.8870     0.0000     1.1680 ns         1 LPW      -0.048400
      4 ON1          1.1830     0.1110     2.3910 oh         1 LPW      -0.433100
      5 C23          1.9670    -0.0070    -1.3050 c3         1 LPW      -0.079100
      6 C22          0.9930     0.1150    -2.4480 ca         1 LPW       0.042700
      7 C21          0.4790    -1.0230    -3.0420 ca         1 LPW      -0.115000
      8 C20         -0.4140    -0.9130    -4.0900 ca         1 LPW      -0.044000
      9 C19         -0.7950     0.3370    -4.5450 ca         1 LPW      -0.133000
     10 C18         -0.2810     1.4740    -3.9520 ca         1 LPW       0.003000
     11 C17          0.6090     1.3630    -2.9000 ca         1 LPW      -0.125500
     12 S1           1.2580     2.8130    -2.1390 sy         1 LPW       0.967600
     13 OSB          0.4680     3.8980    -2.6040 o          1 LPW      -0.591800
     14 OSA          1.4210     2.5050    -0.7610 o          1 LPW      -0.591800
     15 C13          2.8770     3.0620    -2.7880 ca         1 LPW      -0.153500
     16 C12          3.9820     2.6680    -2.0530 ca         1 LPW       0.002500
     17 C11          5.2530     2.8610    -2.5560 ca         1 LPW      -0.138500
     18 C10          5.4210     3.4540    -3.8060 cp         1 LPW       0.039000
     19 C15          4.3060     3.8480    -4.5410 ca         1 LPW      -0.138500
     20 C14          3.0400     3.6460    -4.0310 ca         1 LPW       0.002500
     21 C4           6.7850     3.6640    -4.3520 cp         1 LPW      -0.099000
     22 C3           7.9010     3.2630    -3.6190 ca         1 LPW      -0.045500
     23 C2           9.1670     3.4600    -4.1280 ca         1 LPW      -0.176500
     24 C1           9.3310     4.0570    -5.3710 ca         1 LPW       0.163100
     25 OA          10.5800     4.2490    -5.8710 os         1 LPW      -0.306900
     26 C8          10.6760     4.8690    -7.1560 c3         1 LPW       0.244700
     27 C6           8.2220     4.4570    -6.1050 ca         1 LPW      -0.176500
     28 C5           6.9530     4.2570    -5.6030 ca         1 LPW      -0.045500
     29 H1           2.8810    -0.1140     1.1720 hn         1 LPW       0.144500
     30 H2           1.7320    -0.1840     3.0970 ho         1 LPW       0.384000
     31 H3           2.6570     0.8280    -1.3280 hc         1 LPW       0.040200
     32 H4           2.5190    -0.9340    -1.3980 hc         1 LPW       0.040200
     33 H5           0.7770    -2.0020    -2.6860 ha         1 LPW       0.108000
     34 H6          -0.8170    -1.8050    -4.5550 ha         1 LPW       0.101000
     35 H7          -1.4930     0.4240    -5.3690 ha         1 LPW       0.107000
     36 H8          -0.5800     2.4520    -4.3080 ha         1 LPW       0.125000
     37 H9           3.8500     2.2080    -1.0820 ha         1 LPW       0.120000
     38 H10          6.1170     2.5520    -1.9810 ha         1 LPW       0.116500
     39 H11          4.4320     4.3080    -5.5150 ha         1 LPW       0.116500
     40 H12          2.1720     3.9520    -4.6020 ha         1 LPW       0.120000
     41 H13          7.7730     2.7980    -2.6490 ha         1 LPW       0.110500
     42 H14         10.0340     3.1490    -3.5580 ha         1 LPW       0.120500
     43 H15         11.7190     4.9630    -7.4340 h1         1 LPW      -0.000967
     44 H16         10.2220     5.8520    -7.1170 h1         1 LPW      -0.000967
     45 H17         10.1600     4.2610    -7.8890 h1         1 LPW      -0.000967
     46 H18          8.3530     4.9200    -7.0750 ha         1 LPW       0.120500
     47 H19          6.0880     4.5690    -6.1750 ha         1 LPW       0.110500
@<TRIPOS>BOND
     1     1     2 2   
     2     2     3 1   
     3     2     5 1   
     4     3     4 1   
     5     3    29 1   
     6     4    30 1   
     7     5     6 1   
     8     5    31 1   
     9     5    32 1   
    10     6     7 ar  
    11     6    11 ar  
    12     7     8 ar  
    13     7    33 1   
    14     8     9 ar  
    15     8    34 1   
    16     9    10 ar  
    17     9    35 1   
    18    10    11 ar  
    19    10    36 1   
    20    11    12 1   
    21    12    13 2   
    22    12    14 2   
    23    12    15 1   
    24    15    16 ar  
    25    15    20 ar  
    26    16    17 ar  
    27    16    37 1   
    28    17    18 ar  
    29    17    38 1   
    30    18    19 ar  
    31    18    21 1   
    32    19    20 ar  
    33    19    39 1   
    34    20    40 1   
    35    21    22 ar  
    36    21    28 ar  
    37    22    23 ar  
    38    22    41 1   
    39    23    24 ar  
    40    23    42 1   
    41    24    25 1   
    42    24    27 ar  
    43    25    26 1   
    44    26    43 1   
    45    26    44 1   
    46    26    45 1   
    47    27    28 ar  
    48    27    46 1   
    49    28    47 1   
@<TRIPOS>SUBSTRUCTURE
     1 LPW         1 TEMP              0 ****  ****    0 ROOT
