@<TRIPOS>MOLECULE
molecule
   74    73     1     0     0
SMALL
bcc


@<TRIPOS>ATOM
      1 O7           0.0000     0.0000     0.0000 o          1 LPX      -0.550000
      2 C6           1.2080     0.0000     0.0000 c          1 LPX       0.630100
      3 O6           1.8790     0.0000     1.1630 os         1 LPX      -0.432900
      4 C5           1.0870    -0.0000     2.3810 c3         1 LPX       0.134400
      5 C4           2.0190    -0.0000     3.5940 c3         1 LPX       0.138100
      6 O5           2.7600    -1.2210     3.6250 oh         1 LPX      -0.592800
      7 C3           1.1890     0.1260     4.8730 c3         1 LPX       0.220400
      8 O1           2.0640     0.2420     5.9980 os         1 LPX      -0.609200
      9 P1           1.5310     0.3930     7.5110 p5         1 LPX       1.333800
     10 O3           0.7420     1.7880     7.6650 o          1 LPX      -0.791500
     11 O2           2.7810     0.3670     8.5250 os         1 LPX      -0.612200
     12 C1           2.6310     0.3770     9.9460 c3         1 LPX       0.201400
     13 C2           4.0120     0.3460    10.6040 c3         1 LPX       0.082800
     14 N1           4.7350     1.5840    10.2820 nz         1 LPX      -0.804600
     15 O4           0.6180    -0.7280     7.8260 o          1 LPX      -0.791500
     16 C7           1.9620    -0.0060    -1.3050 c3         1 LPX      -0.127400
     17 C8           0.9690    -0.0120    -2.4680 c3         1 LPX      -0.072400
     18 C9           1.7340    -0.0180    -3.7930 c3         1 LPX      -0.084400
     19 C10          0.7400    -0.0240    -4.9560 c3         1 LPX      -0.080400
     20 C11          1.5060    -0.0290    -6.2810 c3         1 LPX      -0.082400
     21 C12          0.5120    -0.0360    -7.4440 c3         1 LPX      -0.081400
     22 C13          1.2770    -0.0410    -8.7680 c3         1 LPX      -0.082400
     23 C14          0.2840    -0.0480    -9.9320 c3         1 LPX      -0.082400
     24 C15          1.0490    -0.0530   -11.2560 c3         1 LPX      -0.082400
     25 C16          0.0560    -0.0590   -12.4200 c3         1 LPX      -0.082400
     26 C17          0.8220    -0.0650   -13.7440 c3         1 LPX      -0.081400
     27 C18         -0.1730    -0.0700   -14.9070 c3         1 LPX      -0.082400
     28 C19          0.5930    -0.0770   -16.2320 c3         1 LPX      -0.081400
     29 C20         -0.4000    -0.0820   -17.3950 c3         1 LPX      -0.084400
     30 C21          0.3640    -0.0890   -18.7200 c3         1 LPX      -0.092100
     31 H5           0.4620     0.8840     2.4060 h1         1 LPX       0.062200
     32 H5A          0.4630    -0.8850     2.4060 h1         1 LPX       0.062200
     33 H4           2.7040     0.8360     3.5230 h1         1 LPX       0.042700
     34 HO5          3.6830    -1.0300     3.5900 ho         1 LPX       0.399000
     35 H3           0.5610     1.0060     4.8110 h1         1 LPX       0.050700
     36 H3A          0.5680    -0.7540     4.9890 h1         1 LPX       0.050700
     37 H1           2.1070     1.2750    10.2480 h1         1 LPX       0.076700
     38 H1A          2.0640    -0.4930    10.2550 h1         1 LPX       0.076700
     39 H2           3.8980     0.2640    11.6780 hx         1 LPX       0.102200
     40 H2A          4.5700    -0.5050    10.2340 hx         1 LPX       0.102200
     41 HN1          4.1490     2.3730    10.4740 hn         1 LPX       0.453133
     42 HN1A         5.5630     1.6420    10.8410 hn         1 LPX       0.453133
     43 H7           2.5850    -0.8910    -1.3580 hc         1 LPX       0.068700
     44 H7A          2.5850     0.8780    -1.3660 hc         1 LPX       0.068700
     45 H8           0.3460     0.8730    -2.4150 hc         1 LPX       0.059200
     46 H8A          0.3460    -0.8960    -2.4060 hc         1 LPX       0.059200
     47 H9           2.3570     0.8660    -3.8540 hc         1 LPX       0.039200
     48 H9A          2.3560    -0.9030    -3.8460 hc         1 LPX       0.039200
     49 H10          0.1170    -0.9080    -4.8950 hc         1 LPX       0.044200
     50 H10A         0.1170     0.8610    -4.9030 hc         1 LPX       0.044200
     51 H11          2.1290    -0.9130    -6.3330 hc         1 LPX       0.040200
     52 H11A         2.1280     0.8560    -6.3420 hc         1 LPX       0.040200
     53 H12         -0.1100    -0.9200    -7.3820 hc         1 LPX       0.042200
     54 H12A        -0.1110     0.8490    -7.3910 hc         1 LPX       0.042200
     55 H13          1.9010    -0.9250    -8.8210 hc         1 LPX       0.040700
     56 H13A         1.8990     0.8440    -8.8300 hc         1 LPX       0.040700
     57 H14         -0.3380    -0.9320    -9.8700 hc         1 LPX       0.041700
     58 H14A        -0.3400     0.8370    -9.8790 hc         1 LPX       0.041700
     59 H15          1.6710     0.8320   -11.3180 hc         1 LPX       0.040700
     60 H15A         1.6730    -0.9370   -11.3090 hc         1 LPX       0.040700
     61 H16         -0.5660    -0.9440   -12.3580 hc         1 LPX       0.041700
     62 H16A        -0.5680     0.8250   -12.3670 hc         1 LPX       0.041700
     63 H17          1.4450    -0.9500   -13.7980 hc         1 LPX       0.040700
     64 H17A         1.4440     0.8200   -13.8050 hc         1 LPX       0.040700
     65 H18         -0.7960    -0.9550   -14.8460 hc         1 LPX       0.040700
     66 H18A        -0.7950     0.8140   -14.8540 hc         1 LPX       0.040700
     67 H19          1.2160    -0.9620   -16.2850 hc         1 LPX       0.040700
     68 H19A         1.2160     0.8070   -16.2940 hc         1 LPX       0.040700
     69 H20         -1.0230     0.8020   -17.3420 hc         1 LPX       0.039700
     70 H20A        -1.0230    -0.9660   -17.3340 hc         1 LPX       0.039700
     71 H21         -0.3390    -0.0930   -19.5440 hc         1 LPX       0.032367
     72 H21A         0.9870    -0.9740   -18.7730 hc         1 LPX       0.032367
     73 H21B         0.9880     0.7950   -18.7820 hc         1 LPX       0.032367
     74 H131         4.9850     1.5820     9.3130 hn         1 LPX       0.453133
@<TRIPOS>BOND
     1     1     2 2
     2     2     3 1
     3     2    16 1
     4     3     4 1
     5     4     5 1
     6     5     6 1
     7     5     7 1
     8     7     8 1
     9     8     9 1
    10     9    10 1
    11     9    11 1
    12     9    15 1
    13    11    12 1
    14    12    13 1
    15    13    14 1
    16    16    17 1
    17    17    18 1
    18    18    19 1
    19    19    20 1
    20    20    21 1
    21    21    22 1
    22    22    23 1
    23    23    24 1
    24    24    25 1
    25    25    26 1
    26    26    27 1
    27    27    28 1
    28    28    29 1
    29    29    30 1
    30     4    31 1
    31     4    32 1
    32     5    33 1
    33     6    34 1
    34     7    35 1
    35     7    36 1
    36    12    37 1
    37    12    38 1
    38    13    39 1
    39    13    40 1
    40    14    41 1
    41    14    42 1
    42    16    43 1
    43    16    44 1
    44    17    45 1
    45    17    46 1
    46    18    47 1
    47    18    48 1
    48    19    49 1
    49    19    50 1
    50    20    51 1
    51    20    52 1
    52    21    53 1
    53    21    54 1
    54    22    55 1
    55    22    56 1
    56    23    57 1
    57    23    58 1
    58    24    59 1
    59    24    60 1
    60    25    61 1
    61    25    62 1
    62    26    63 1
    63    26    64 1
    64    27    65 1
    65    27    66 1
    66    28    67 1
    67    28    68 1
    68    29    69 1
    69    29    70 1
    70    30    71 1
    71    30    72 1
    72    30    73 1
    73    74    14 1
@<TRIPOS>SUBSTRUCTURE
     1 LPX         1 TEMP              0 ****  ****    0 ROOT
