@<TRIPOS>MOLECULE
molecule
   77    77     1     0     0
SMALL
bcc


@<TRIPOS>ATOM
      1 P            0.0000     0.0000     0.0000 p5         1 LPY       1.359800
      2 O1           4.9270    -2.4170     2.5500 oh         1 LPY      -0.607300
      3 O2           2.4450    -2.4170     1.2010 oh         1 LPY      -0.586800
      4 O3           1.6100     0.0000     0.0000 os         1 LPY      -0.582200
      5 O4          -0.5360     1.3770     0.6400 o          1 LPY      -0.820000
      6 O5          -0.4940    -1.1420     0.8000 o          1 LPY      -0.820000
      7 O7          -5.8530    -1.1350    -4.8350 o          1 LPY      -0.561000
      8 O8          -1.6660     0.8590    -3.9620 oh         1 LPY      -0.588800
      9 O9          -3.6810    -0.8480    -5.1280 os         1 LPY      -0.416900
     10 O10         -0.5360    -0.1320    -1.5120 os         1 LPY      -0.590200
     11 O11          4.1420     1.2480     0.1000 oh         1 LPY      -0.586800
     12 O12          4.9290     2.4150     2.5490 oh         1 LPY      -0.607300
     13 C15         -2.0810    -0.3670    -3.3560 c3         1 LPY       0.135100
     14 C16         -1.9210    -0.2650    -1.8380 c3         1 LPY       0.206400
     15 C17          4.9870    -0.0010     2.5520 c3         1 LPY       0.132100
     16 C20          4.1050     1.2490     2.5160 c3         1 LPY       0.124100
     17 C26          4.1040    -1.2490     2.5170 c3         1 LPY       0.124100
     18 C29        -15.1300    -4.0630   -16.1320 c3         1 LPY      -0.092100
     19 C30        -13.6440    -3.8040   -15.8680 c3         1 LPY      -0.084400
     20 C31        -13.4260    -3.5680   -14.3720 c3         1 LPY      -0.081400
     21 C32        -11.9420    -3.3100   -14.1080 c3         1 LPY      -0.082400
     22 C33        -11.7230    -3.0740   -12.6120 c3         1 LPY      -0.082400
     23 C34        -10.2390    -2.8150   -12.3480 c3         1 LPY      -0.082400
     24 C35        -10.0200    -2.5780   -10.8520 c3         1 LPY      -0.081400
     25 C36         -8.5360    -2.3190   -10.5890 c3         1 LPY      -0.082400
     26 C37         -8.3170    -2.0840    -9.0930 c3         1 LPY      -0.080400
     27 C38         -6.8320    -1.8250    -8.8280 c3         1 LPY      -0.084400
     28 C39         -6.6140    -1.5880    -7.3330 c3         1 LPY      -0.072400
     29 C40         -5.1290    -1.3290    -7.0690 c3         1 LPY      -0.127400
     30 C41          3.2710    -1.2500     1.2340 c3         1 LPY       0.121100
     31 C42         -4.9140    -1.0970    -5.5950 c          1 LPY       0.628100
     32 C43          2.3880     0.0000     1.1990 c3         1 LPY       0.230100
     33 C44          3.2710     1.2490     1.2330 c3         1 LPY       0.121100
     34 C45         -3.5480    -0.6330    -3.6990 c3         1 LPY       0.108400
     35 H1           4.7250    -2.9220     3.3200 ho         1 LPY       0.401000
     36 H2           2.7320    -2.9850     0.5060 ho         1 LPY       0.401000
     37 H4          -2.2190     1.5610    -3.6630 ho         1 LPY       0.395000
     38 H5           3.9540     1.9970    -0.4420 ho         1 LPY       0.401000
     39 H6           4.6060     3.0100     3.2050 ho         1 LPY       0.401000
     40 H7           6.6820     0.0080     3.5290 ho         1 LPY       0.403000
     41 H8          -1.4700    -1.1800    -3.7300 h1         1 LPY       0.094700
     42 H9          -2.4620     0.6000    -1.4750 h1         1 LPY       0.035200
     43 H10         -2.3170    -1.1600    -1.3730 h1         1 LPY       0.035200
     44 H11          5.6430    -0.0020     1.6900 h1         1 LPY       0.069700
     45 H12          3.4430     1.2450     3.3740 h1         1 LPY       0.051200
     46 H13          3.4420    -1.2450     3.3740 h1         1 LPY       0.051200
     47 H14        -15.4460    -4.9410   -15.5830 hc         1 LPY       0.031700
     48 H15        -15.7090    -3.2060   -15.8090 hc         1 LPY       0.031700
     49 H16        -15.2850    -4.2250   -17.1920 hc         1 LPY       0.031700
     50 H17        -13.0660    -4.6630   -16.1870 hc         1 LPY       0.039700
     51 H18        -13.3270    -2.9290   -16.4220 hc         1 LPY       0.039700
     52 H19        -13.7440    -4.4440   -13.8180 hc         1 LPY       0.040700
     53 H20        -14.0050    -2.7100   -14.0530 hc         1 LPY       0.040700
     54 H21        -11.6240    -2.4340   -14.6620 hc         1 LPY       0.040700
     55 H22        -11.3640    -4.1680   -14.4270 hc         1 LPY       0.040700
     56 H23        -12.3010    -2.2150   -12.2930 hc         1 LPY       0.040700
     57 H24        -12.0410    -3.9490   -12.0580 hc         1 LPY       0.040700
     58 H25         -9.6610    -3.6740   -12.6660 hc         1 LPY       0.040700
     59 H26         -9.9210    -1.9400   -12.9030 hc         1 LPY       0.040700
     60 H27        -10.3380    -3.4530   -10.2980 hc         1 LPY       0.041700
     61 H28        -10.5980    -1.7190   -10.5340 hc         1 LPY       0.041700
     62 H29         -8.2180    -1.4440   -11.1420 hc         1 LPY       0.040700
     63 H30         -7.9580    -3.1780   -10.9070 hc         1 LPY       0.040700
     64 H31         -8.6350    -2.9590    -8.5390 hc         1 LPY       0.043700
     65 H32         -8.8950    -1.2250    -8.7740 hc         1 LPY       0.043700
     66 H33         -6.2540    -2.6840    -9.1460 hc         1 LPY       0.039700
     67 H34         -6.5140    -0.9500    -9.3820 hc         1 LPY       0.039700
     68 H35         -6.9320    -2.4630    -6.7790 hc         1 LPY       0.057700
     69 H36         -7.1930    -0.7290    -7.0150 hc         1 LPY       0.057700
     70 H37         -4.5510    -2.1880    -7.3870 hc         1 LPY       0.069200
     71 H38         -4.8110    -0.4540    -7.6220 hc         1 LPY       0.069200
     72 H39          3.9330    -1.2460     0.3760 h1         1 LPY       0.064200
     73 H40          1.7320     0.0000     2.0610 h1         1 LPY       0.065700
     74 H41          2.6440     2.1320     1.2120 h1         1 LPY       0.064200
     75 H42         -3.8880    -1.5150    -3.1680 h1         1 LPY       0.052700
     76 H43         -4.1480     0.2190    -3.4040 h1         1 LPY       0.052700
     77 O13          5.7650    -0.0000     3.7500 oh         1 LPY      -0.614800
@<TRIPOS>BOND
     1    18    19 1
     2    19    20 1
     3    20    21 1
     4    21    22 1
     5    22    23 1
     6    23    24 1
     7    24    25 1
     8    25    26 1
     9    26    27 1
    10    27    28 1
    11    28    29 1
    12    29    31 1
    13    31     7 2
    14    31     9 1
    15     9    34 1
    16    34    13 1
    17     8    13 1
    18    13    14 1
    19    14    10 1
    20    10     1 1
    21     6     1 1
    22     1     4 1
    23     1     5 1
    24     4    32 1
    25     3    30 1
    26    32    30 1
    27    32    33 1
    28    30    17 1
    29    33    11 1
    30    33    16 1
    31    17     2 1
    32    17    15 1
    33    16    15 1
    34    16    12 1
    35    15    77 1
    36     2    35 1
    37     3    36 1
    38     8    37 1
    39    11    38 1
    40    12    39 1
    41    77    40 1
    42    13    41 1
    43    14    42 1
    44    14    43 1
    45    15    44 1
    46    16    45 1
    47    17    46 1
    48    18    47 1
    49    18    48 1
    50    18    49 1
    51    19    50 1
    52    19    51 1
    53    20    52 1
    54    20    53 1
    55    21    54 1
    56    21    55 1
    57    22    56 1
    58    22    57 1
    59    23    58 1
    60    23    59 1
    61    24    60 1
    62    24    61 1
    63    25    62 1
    64    25    63 1
    65    26    64 1
    66    26    65 1
    67    27    66 1
    68    27    67 1
    69    28    68 1
    70    28    69 1
    71    29    70 1
    72    29    71 1
    73    30    72 1
    74    32    73 1
    75    33    74 1
    76    34    75 1
    77    34    76 1
@<TRIPOS>SUBSTRUCTURE
     1 LPY         1 TEMP              0 ****  ****    0 ROOT
