@<TRIPOS>MOLECULE
molecule
   62    65     1     0     0
SMALL
bcc


@<TRIPOS>ATOM
      1 C02          0.0000     0.0000     0.0000 ca         1 LQ5      -0.102500
      2 C03          1.3810     0.0000     0.0000 ca         1 LQ5      -0.145500
      3 C04          2.0750     0.0000     1.2030 ca         1 LQ5       0.072600
      4 C06         -0.0020    -0.0000     2.4040 ca         1 LQ5      -0.102500
      5 C07         -0.6940    -0.0010     1.2020 ca         1 LQ5       0.088100
      6 O08         -2.0540    -0.0000     1.2000 os         1 LQ5      -0.350400
      7 C09         -2.6900    -1.1550     0.8920 ca         1 LQ5       0.725600
      8 C10         -4.0790    -1.1880     0.7730 ca         1 LQ5      -0.455600
      9 C11         -4.6860    -2.3890     0.4570 ca         1 LQ5       0.521200
     10 N12         -3.9360    -3.4660     0.2770 nb         1 LQ5      -0.825000
     11 C13         -2.6180    -3.4050     0.3970 ca         1 LQ5       0.976900
     12 N17         -1.8700    -4.5520     0.2020 nv         1 LQ5      -0.988500
     13 C18          4.1510     0.5130     0.1570 c          1 LQ5       0.783100
     14 N19          5.4930     0.4050     0.1000 ns         1 LQ5      -0.484100
     15 C20          6.1850     0.8530    -1.0300 ca         1 LQ5       0.064600
     16 C21          5.7410     1.9750    -1.7180 ca         1 LQ5      -0.102000
     17 C22          6.4260     2.4140    -2.8340 ca         1 LQ5      -0.116000
     18 C23          7.5530     1.7390    -3.2660 ca         1 LQ5      -0.049300
     19 C24          7.9960     0.6220    -2.5840 ca         1 LQ5      -0.141300
     20 C25          9.2260    -0.1110    -3.0580 c3         1 LQ5       0.675200
     21 F26          9.4750    -1.1980    -2.2130 f          1 LQ5      -0.219967
     22 F27          9.0180    -0.5720    -4.3630 f          1 LQ5      -0.219967
     23 F28         10.3230     0.7560    -3.0370 f          1 LQ5      -0.219967
     24 C29          7.3190     0.1810    -1.4640 ca         1 LQ5      -0.128000
     25 C30          8.2970     2.2210    -4.4840 c3         1 LQ5       0.191100
     26 N31          7.9180     1.4050    -5.6450 n3         1 LQ5      -0.721600
     27 C32          8.7910     1.6850    -6.7940 c3         1 LQ5       0.162300
     28 N30         -2.0000    -2.2720     0.6940 nb         1 LQ5      -0.868000
     29 C33          8.4150     0.7600    -7.9540 c3         1 LQ5       0.164300
     30 N34          7.0040     0.9690    -8.3060 n3         1 LQ5      -0.735600
     31 C26          1.3790    -0.0000     2.4050 ca         1 LQ5      -0.145500
     32 C35          6.1310     0.6890    -7.1570 c3         1 LQ5       0.164300
     33 C36          6.5060     1.6140    -5.9970 c3         1 LQ5       0.162300
     34 C37          6.6240     0.1520    -9.4670 c3         1 LQ5       0.153100
     35 O39          3.5490     1.0750    -0.7380 o          1 LQ5      -0.634100
     36 N20          3.4760    -0.0010     1.2040 ns         1 LQ5      -0.483100
     37 H02         -0.5420    -0.0000    -0.9380 ha         1 LQ5       0.145500
     38 H03          1.9230     0.0000    -0.9380 ha         1 LQ5       0.154500
     39 H26          1.9200     0.0000     3.3440 ha         1 LQ5       0.154500
     40 H20          3.9750    -0.3410     2.0010 hn         1 LQ5       0.320500
     41 H06         -0.5440    -0.0000     3.3410 ha         1 LQ5       0.145500
     42 H10         -4.6690    -0.2930     0.9250 ha         1 LQ5       0.155000
     43 H11         -5.7630    -2.4480     0.3570 h4         1 LQ5       0.032100
     44 H171        -0.8840    -4.5430     0.3780 hn         1 LQ5       0.450800
     45 H172        -2.3140    -5.3930    -0.1090 hn         1 LQ5       0.450800
     46 H19          5.9830    -0.0900     0.8190 hn         1 LQ5       0.321500
     47 H21          4.8580     2.5040    -1.3800 ha         1 LQ5       0.176000
     48 H29          7.6680    -0.6950    -0.9300 ha         1 LQ5       0.148000
     49 H22          6.0810     3.2900    -3.3710 ha         1 LQ5       0.144000
     50 H301         9.3630     2.1340    -4.3130 h1         1 LQ5       0.050700
     51 H302         8.0460     3.2580    -4.6730 h1         1 LQ5       0.050700
     52 H321         8.6640     2.7160    -7.1000 h1         1 LQ5       0.041950
     53 H322         9.8220     1.5100    -6.5140 h1         1 LQ5       0.041950
     54 H361         6.3570     2.6440    -6.2950 h1         1 LQ5       0.041950
     55 H362         5.8840     1.3870    -5.1400 h1         1 LQ5       0.041950
     56 H331         8.5630    -0.2710    -7.6550 h1         1 LQ5       0.042200
     57 H332         9.0370     0.9860    -8.8110 h1         1 LQ5       0.042200
     58 H351         5.0990     0.8630    -7.4380 h1         1 LQ5       0.042200
     59 H352         6.2580    -0.3430    -6.8510 h1         1 LQ5       0.042200
     60 H371         7.2610     0.4010   -10.3070 h1         1 LQ5       0.031700
     61 H372         5.5910     0.3510    -9.7250 h1         1 LQ5       0.031700
     62 H373         6.7400    -0.8970    -9.2240 h1         1 LQ5       0.031700
@<TRIPOS>BOND
     1     1     2 ar
     2     1     5 ar
     3     2     3 ar
     4     3    31 ar
     5     3    36 1
     6     4     5 ar
     7     4    31 ar
     8     5     6 1
     9     6     7 1
    10     7     8 ar
    11     7    28 ar
    12     8     9 ar
    13     9    10 ar
    14    10    11 ar
    15    11    12 1
    16    11    28 ar
    17    13    14 1
    18    13    35 2
    19    13    36 1
    20    14    15 1
    21    15    16 ar
    22    15    24 ar
    23    16    17 ar
    24    17    18 ar
    25    18    19 ar
    26    18    25 1
    27    19    20 1
    28    19    24 ar
    29    20    21 1
    30    20    22 1
    31    20    23 1
    32    25    26 1
    33    26    27 1
    34    26    33 1
    35    27    29 1
    36    29    30 1
    37    30    32 1
    38    30    34 1
    39    32    33 1
    40     1    37 1
    41     2    38 1
    42    31    39 1
    43    36    40 1
    44     4    41 1
    45     8    42 1
    46     9    43 1
    47    12    44 1
    48    12    45 1
    49    14    46 1
    50    16    47 1
    51    24    48 1
    52    17    49 1
    53    25    50 1
    54    25    51 1
    55    27    52 1
    56    27    53 1
    57    33    54 1
    58    33    55 1
    59    29    56 1
    60    29    57 1
    61    32    58 1
    62    32    59 1
    63    34    60 1
    64    34    61 1
    65    34    62 1
@<TRIPOS>SUBSTRUCTURE
     1 LQ5         1 TEMP              0 ****  ****    0 ROOT
