@<TRIPOS>MOLECULE
molecule
   55    59     1     0     0
SMALL
bcc


@<TRIPOS>ATOM
      1 C1           0.0000     0.0000     0.0000 cc         1 LQA      -0.138300
      2 C2           1.4750     0.6090     2.2920 cc         1 LQA       0.273800
      3 C11          1.6610     1.5870     4.5740 ca         1 LQA      -0.008000
      4 C12          3.4160    -0.6140     1.3830 c3         1 LQA      -0.447200
      5 C13          2.4160     1.9420     5.6750 ca         1 LQA      -0.040900
      6 C14          3.7930     1.7150     5.6740 ca         1 LQA       0.139100
      7 C17         -4.8740     0.9640     1.2240 ca         1 LQA       0.170100
      8 C18          4.4030     1.1390     4.5690 ca         1 LQA      -0.285000
      9 C19         -2.7360     1.5860     0.3170 ca         1 LQA      -0.188000
     10 C20         -4.1110     1.7320     0.3470 ca         1 LQA       0.157100
     11 C24          4.3450     0.1780     2.2730 c3         1 LQA      -0.100100
     12 C25          3.1740     2.2600     7.7490 c3         1 LQA       0.297200
     13 C26         -2.8870    -0.0910     2.0520 ca         1 LQA      -0.139000
     14 C27         -4.2570     0.0550     2.0720 ca         1 LQA      -0.208000
     15 C29         -6.9340     0.3840     2.2600 c3         1 LQA       0.023100
     16 C30         -3.8730     3.3790    -1.3520 c3         1 LQA       0.120700
     17 N3           2.1060     0.0000     1.2330 na         1 LQA      -0.465400
     18 C4           1.4740     0.0000     0.0000 cc         1 LQA       0.581500
     19 C5          -0.6470     0.5120     1.1430 cd         1 LQA       0.117800
     20 C6           0.1270     0.8720     2.2590 cd         1 LQA      -0.231000
     21 C7           2.2790     1.0040     3.4660 ca         1 LQA      -0.248800
     22 C8          -2.1170     0.6670     1.1660 ca         1 LQA      -0.143800
     23 C9           3.6570     0.7840     3.4610 ca         1 LQA       0.162700
     24 C10         -0.7450    -0.4940    -1.1180 cg         1 LQA       0.229500
     25 N15         -1.3240    -0.9010    -2.0080 n1         1 LQA      -0.347800
     26 N16          2.1580     0.0010    -1.1200 n2         1 LQA      -0.708100
     27 O21          2.0690     2.5150     6.8630 os         1 LQA      -0.331900
     28 O22          4.3040     2.1430     6.8640 os         1 LQA      -0.294900
     29 O28         -4.7180     2.6250    -0.4800 os         1 LQA      -0.312900
     30 C31         -7.8810    -0.8740     1.7920 c3         1 LQA      -0.103100
     31 C32         -6.1320     0.1520     3.7020 c3         1 LQA      -0.103100
     32 H1           0.6080     1.8220     4.4700 ha         1 LQA       0.145000
     33 H2           2.6660    -0.0760     0.8160 h1         1 LQA       0.276700
     34 H3           4.3090    -1.1050     1.0170 h1         1 LQA       0.276700
     35 H4           5.4700     0.9640     4.6380 ha         1 LQA       0.151000
     36 H5          -1.7920     2.0130     0.0010 ha         1 LQA       0.171000
     37 H6           5.3070    -0.2770     2.0730 hc         1 LQA       0.117200
     38 H7           4.1060     0.0910     3.3260 hc         1 LQA       0.117200
     39 H8           2.7390     1.8940     8.6710 h2         1 LQA       0.083700
     40 H9           3.5200     3.2740     7.9050 h2         1 LQA       0.083700
     41 H10         -2.1660    -0.4630     2.7690 ha         1 LQA       0.136000
     42 H11         -4.4240    -0.6610     2.8680 ha         1 LQA       0.189000
     43 H12         -7.1720     1.0770     3.0580 h1         1 LQA       0.105700
     44 H13         -4.1310     4.1510    -2.0680 h1         1 LQA       0.043033
     45 H14         -3.0020     2.7640    -1.5410 h1         1 LQA       0.043033
     46 H15         -3.4040     3.9250    -0.5430 h1         1 LQA       0.043033
     47 H16         -0.3680     1.0920     3.1970 ha         1 LQA       0.173000
     48 H17          3.0480    -0.2890    -0.7660 hn         1 LQA       0.373400
     49 H19         -8.3790    -0.5140     0.9000 hc         1 LQA       0.053367
     50 H20         -7.3890    -1.7900     2.0960 hc         1 LQA       0.053367
     51 H21         -8.6970    -0.6010     2.4500 hc         1 LQA       0.053367
     52 H22         -5.3870    -0.6250     3.5880 hc         1 LQA       0.053367
     53 H23         -6.7970    -0.4900     4.2670 hc         1 LQA       0.053367
     54 H24         -5.7940     1.0100     4.2710 hc         1 LQA       0.053367
     55 O23         -6.2240     1.1090     1.2520 os         1 LQA      -0.276900
@<TRIPOS>BOND
     1    12    28 1
     2    12    27 1
     3    28     6 1
     4     6     8 ar
     5     6     5 ar
     6    27     5 1
     7     8    23 ar
     8     4    11 1
     9     4    17 1
    10     5     3 ar
    11    23    11 1
    12    23    21 ar
    13    26    18 2
    14     3    21 ar
    15    17    18 1
    16    17     2 1
    17    21     2 1
    18    18     1 1
    19     2    20 2
    20     1    24 1
    21     1    19 2
    22    20    19 1
    23    24    25 3
    24    19    22 1
    25    13    22 ar
    26    13    14 ar
    27    22     9 ar
    28    14     7 ar
    29     9    10 ar
    30     7    10 ar
    31     7    55 1
    32    10    29 1
    33    55    15 1
    34    15    31 1
    35    15    30 1
    36    29    16 1
    37     3    32 1
    38     4    33 1
    39     4    34 1
    40     8    35 1
    41     9    36 1
    42    11    37 1
    43    11    38 1
    44    12    39 1
    45    12    40 1
    46    13    41 1
    47    14    42 1
    48    15    43 1
    49    16    44 1
    50    16    45 1
    51    16    46 1
    52    20    47 1
    53    26    48 1
    54    30    49 1
    55    30    50 1
    56    30    51 1
    57    31    52 1
    58    31    53 1
    59    31    54 1
@<TRIPOS>SUBSTRUCTURE
     1 LQA         1 TEMP              0 ****  ****    0 ROOT
