@<TRIPOS>MOLECULE
molecule
   46    49     1     0     0
SMALL
bcc


@<TRIPOS>ATOM
      1 C2           0.0000     0.0000     0.0000 ca         1 LQB       0.123800
      2 C3           1.3880     0.0000     0.0000 ca         1 LQB      -0.184200
      3 C11         -1.4140    -0.6290    -3.1940 cc         1 LQB       0.353600
      4 C12         -1.6130     1.1330     3.6920 c3         1 LQB       0.218100
      5 C13          2.0810     0.0000     1.1960 ca         1 LQB      -0.036000
      6 C14         -2.2820     1.1780     5.0400 ca         1 LQB      -0.086300
      7 C17          0.2430     0.0210     4.7540 c3         1 LQB       0.153800
      8 C18          1.3950    -0.0000     2.3950 ca         1 LQB      -0.200000
      9 C19         -1.7770     0.4930     6.1260 ca         1 LQB      -0.066300
     10 C20         -0.5300    -0.3480     6.0200 c3         1 LQB      -0.031100
     11 C21         -2.0190     2.1520    -0.8400 c3         1 LQB      -0.028800
     12 C22         -1.6190    -1.3920    -4.4770 c3         1 LQB      -0.109400
     13 C23         -3.4380     1.9310     5.1800 ca         1 LQB      -0.121000
     14 C24         -2.4230     0.5680     7.3510 ca         1 LQB      -0.125000
     15 C25         -4.0820     2.0020     6.3990 ca         1 LQB      -0.126000
     16 C26         -3.5730     1.3190     7.4870 ca         1 LQB      -0.120000
     17 N1          -0.7030    -0.0010    -1.2130 na         1 LQB       0.120300
     18 N4           2.1270     0.0000    -1.2830 no         1 LQB       0.300200
     19 N5          -0.6080    -0.9700    -2.2200 nd         1 LQB      -0.469800
     20 C6          -1.5970     0.9300    -1.6150 cd         1 LQB      -0.059600
     21 C7          -0.6930    -0.0060     1.2020 ca         1 LQB      -0.174000
     22 N8          -0.6880    -0.0010     3.6150 nh         1 LQB      -0.584000
     23 C9          -2.0460     0.5670    -2.8390 cc         1 LQB      -0.329300
     24 C10          0.0050     0.0000     2.4020 ca         1 LQB       0.154600
     25 O15          3.3400    -0.1110    -1.2860 o          1 LQB      -0.198000
     26 O16          1.5230     0.1120    -2.3340 o          1 LQB      -0.198000
     27 H1          -1.0620     2.0530     3.5380 h1         1 LQB       0.054200
     28 H2          -2.3690     1.0300     2.9230 h1         1 LQB       0.054200
     29 H3           3.1640    -0.0000     1.1930 ha         1 LQB       0.171000
     30 H4           1.0350    -0.6990     4.5900 h1         1 LQB       0.050700
     31 H5           0.6620     1.0140     4.8610 h1         1 LQB       0.050700
     32 H6           1.9420     0.0020     3.3300 ha         1 LQB       0.156000
     33 H7           0.0960    -0.1710     6.8870 hc         1 LQB       0.063700
     34 H8          -0.8070    -1.3950     5.9790 hc         1 LQB       0.063700
     35 H9          -2.7110     1.8630    -0.0590 hc         1 LQB       0.050367
     36 H10         -1.1470     2.6170    -0.3950 hc         1 LQB       0.050367
     37 H11         -2.5010     2.8550    -1.5080 hc         1 LQB       0.050367
     38 H12         -1.3300    -0.7700    -5.3160 hc         1 LQB       0.051700
     39 H13         -2.6630    -1.6640    -4.5730 hc         1 LQB       0.051700
     40 H14         -1.0120    -2.2880    -4.4660 hc         1 LQB       0.051700
     41 H15         -3.8380     2.4660     4.3280 ha         1 LQB       0.129000
     42 H16         -2.0250     0.0330     8.2040 ha         1 LQB       0.133000
     43 H17         -4.9840     2.5930     6.5020 ha         1 LQB       0.133000
     44 H18         -4.0750     1.3720     8.4450 ha         1 LQB       0.133000
     45 H19         -1.7760    -0.0060     1.2050 ha         1 LQB       0.164000
     46 H20         -2.7970     1.0880    -3.4220 ha         1 LQB       0.156000
@<TRIPOS>BOND
     1    25    18 1
     2    26    18 1
     3    18     2 1
     4     5     2 ar
     5     5     8 ar
     6     2     1 ar
     7     8    24 ar
     8     1    17 1
     9     1    21 ar
    10    19    17 1
    11    19     3 2
    12    12     3 1
    13    17    20 1
    14     3    23 1
    15    20    23 2
    16    20    11 1
    17    24    21 ar
    18    24    22 1
    19    13    15 ar
    20    13     6 ar
    21    15    16 ar
    22     4    22 1
    23     4     6 1
    24    22     7 1
    25     6     9 ar
    26    16    14 ar
    27     9    14 ar
    28     9    10 1
    29     7    10 1
    30     4    27 1
    31     4    28 1
    32     5    29 1
    33     7    30 1
    34     7    31 1
    35     8    32 1
    36    10    33 1
    37    10    34 1
    38    11    35 1
    39    11    36 1
    40    11    37 1
    41    12    38 1
    42    12    39 1
    43    12    40 1
    44    13    41 1
    45    14    42 1
    46    15    43 1
    47    16    44 1
    48    21    45 1
    49    23    46 1
@<TRIPOS>SUBSTRUCTURE
     1 LQB         1 TEMP              0 ****  ****    0 ROOT
