@<TRIPOS>MOLECULE
LQB
   46    49     1     0     0
SMALL
bcc


@<TRIPOS>ATOM
      1 C2           0.0000     0.0000     0.0000 ca         1 LQB      -0.010200
      2 C3           1.3880     0.0000     0.0000 ca         1 LQB      -0.469200
      3 C11         -1.4140    -0.6290    -3.1940 cc         1 LQB       0.381600
      4 C12         -1.6130     1.1330     3.6920 c3         1 LQB       0.209100
      5 C13          2.0810     0.0000     1.1960 ca         1 LQB       0.031000
      6 C14         -2.2820     1.1780     5.0400 ca         1 LQB      -0.095300
      7 C17          0.2430     0.0210     4.7540 c3         1 LQB       0.120800
      8 C18          1.3950    -0.0000     2.3950 ca         1 LQB      -0.192000
      9 C19         -1.7770     0.4930     6.1260 ca         1 LQB      -0.073300
     10 C20         -0.5300    -0.3480     6.0200 c3         1 LQB       0.038900
     11 C21         -2.0190     2.1520    -0.8400 c3         1 LQB       0.097200
     12 C22         -1.6190    -1.3920    -4.4770 c3         1 LQB      -0.002400
     13 C23         -3.4380     1.9310     5.1800 ca         1 LQB      -0.093000
     14 C24         -2.4230     0.5680     7.3510 ca         1 LQB      -0.098000
     15 C25         -4.0820     2.0020     6.3990 ca         1 LQB      -0.099000
     16 C26         -3.5730     1.3190     7.4870 ca         1 LQB      -0.093000
     17 N1          -0.7030    -0.0010    -1.2130 na         1 LQB       0.578300
     18 N4           2.1270     0.0000    -1.2830 no         1 LQB       1.052200
     19 N5          -0.6080    -0.9700    -2.2200 nd         1 LQB      -0.617800
     20 C6          -1.5970     0.9300    -1.6150 cd         1 LQB      -0.241600
     21 C7          -0.6930    -0.0060     1.2020 ca         1 LQB      -0.155000
     22 N8          -0.6880    -0.0010     3.6150 nh         1 LQB      -0.345000
     23 C9          -2.0460     0.5670    -2.8390 cc         1 LQB      -0.310300
     24 C10          0.0050     0.0000     2.4020 ca         1 LQB       0.085600
     25 O15          3.3400    -0.1110    -1.2860 o          1 LQB      -0.444000
     26 O16          1.5230     0.1120    -2.3340 o          1 LQB      -0.444000
     27 H1          -1.0620     2.0530     3.5380 h1         1 LQB       0.024200
     28 H2          -2.3690     1.0300     2.9230 h1         1 LQB       0.024200
     29 H3           3.1640    -0.0000     1.1930 ha         1 LQB       0.134000
     30 H4           1.0350    -0.6990     4.5900 h1         1 LQB       0.027200
     31 H5           0.6620     1.0140     4.8610 h1         1 LQB       0.027200
     32 H6           1.9420     0.0020     3.3300 ha         1 LQB       0.137000
     33 H7           0.0960    -0.1710     6.8870 hc         1 LQB       0.029700
     34 H8          -0.8070    -1.3950     5.9790 hc         1 LQB       0.029700
     35 H9          -2.7110     1.8630    -0.0590 hc         1 LQB       0.009033
     36 H10         -1.1470     2.6170    -0.3950 hc         1 LQB       0.009033
     37 H11         -2.5010     2.8550    -1.5080 hc         1 LQB       0.009033
     38 H12         -1.3300    -0.7700    -5.3160 hc         1 LQB       0.011033
     39 H13         -2.6630    -1.6640    -4.5730 hc         1 LQB       0.011033
     40 H14         -1.0120    -2.2880    -4.4660 hc         1 LQB       0.011033
     41 H15         -3.8380     2.4660     4.3280 ha         1 LQB       0.104000
     42 H16         -2.0250     0.0330     8.2040 ha         1 LQB       0.107000
     43 H17         -4.9840     2.5930     6.5020 ha         1 LQB       0.105000
     44 H18         -4.0750     1.3720     8.4450 ha         1 LQB       0.105000
     45 H19         -1.7760    -0.0060     1.2050 ha         1 LQB       0.138000
     46 H20         -2.7970     1.0880    -3.4220 ha         1 LQB       0.135000
@<TRIPOS>BOND
     1     1     2 ar  
     2     1    17 1   
     3     1    21 ar  
     4     2     5 ar  
     5     2    18 1   
     6     3    12 1   
     7     3    19 2   
     8     3    23 1   
     9     4     6 1   
    10     4    22 1   
    11     4    27 1   
    12     4    28 1   
    13     5     8 ar  
    14     5    29 1   
    15     6     9 ar  
    16     6    13 ar  
    17     7    10 1   
    18     7    22 1   
    19     7    30 1   
    20     7    31 1   
    21     8    24 ar  
    22     8    32 1   
    23     9    10 1   
    24     9    14 ar  
    25    10    33 1   
    26    10    34 1   
    27    11    20 1   
    28    11    35 1   
    29    11    36 1   
    30    11    37 1   
    31    12    38 1   
    32    12    39 1   
    33    12    40 1   
    34    13    15 ar  
    35    13    41 1   
    36    14    16 ar  
    37    14    42 1   
    38    15    16 ar  
    39    15    43 1   
    40    16    44 1   
    41    17    19 1   
    42    17    20 1   
    43    18    25 1   
    44    18    26 1   
    45    20    23 2   
    46    21    24 ar  
    47    21    45 1   
    48    22    24 1   
    49    23    46 1   
@<TRIPOS>SUBSTRUCTURE
     1 LQB         1 TEMP              0 ****  ****    0 ROOT
