@<TRIPOS>MOLECULE
LQD
   56    59     1     0     0
SMALL
bcc


@<TRIPOS>ATOM
      1 C1           0.0000     0.0000     0.0000 cc         1 LQD      -0.149400
      2 C2          -0.8970     0.0010    -1.2110 c3         1 LQD       0.036500
      3 C3           1.3430     0.0000     0.0000 cd         1 LQD      -0.247100
      4 C11         -0.7290    -0.7070    -3.5210 c3         1 LQD       0.131800
      5 C14         -0.4390    -0.0820    -6.4810 ca         1 LQD       0.153100
      6 C16         -1.6720     0.0060     2.0350 ca         1 LQD      -0.049000
      7 C18          0.6610    -0.0040     3.5560 ca         1 LQD      -0.104000
      8 C19          1.2440     1.6150    -6.3100 ca         1 LQD      -0.047000
      9 C20         -1.4200    -3.4700    -2.6540 c3         1 LQD       0.171600
     10 C21         -1.7450    -2.6190    -0.4110 c3         1 LQD       0.171600
     11 C22          0.1430    -0.5390    -7.6550 ca         1 LQD      -0.210000
     12 C23         -2.0690    -1.7940    -6.7380 c3         1 LQD       0.237700
     13 C24         -1.7370     0.0030     3.4000 ca         1 LQD      -0.133000
     14 C25         -0.5760    -0.0020     4.1620 ca         1 LQD      -0.087000
     15 C26          1.8230     1.1580    -7.4800 ca         1 LQD      -0.146000
     16 C27          1.2730     0.0810    -8.1520 ca         1 LQD      -0.059000
     17 N4           1.8080     0.0000     1.2870 na         1 LQD       0.392600
     18 C5          -0.4280     0.0050     1.4010 ca         1 LQD      -0.095800
     19 N6          -0.1040     0.6370    -3.4160 n3         1 LQD      -0.544600
     20 C7          -0.6340    -1.2550    -2.0740 c3         1 LQD       0.122500
     21 C8           0.7510     0.0000     2.1670 ca         1 LQD      -0.210200
     22 C9          -0.5600     1.1940    -2.1250 c3         1 LQD       0.148800
     23 C10          0.1150     0.9970    -5.8100 ca         1 LQD      -0.125300
     24 N13         -1.6630    -2.2740    -1.8360 n3         1 LQD      -0.539600
     25 H1          -1.9380     0.0400    -0.9140 hc         1 LQD       0.048700
     26 H2           1.9650     0.0010    -0.8870 h4         1 LQD       0.153000
     27 H3          -0.1680    -1.3350    -4.2030 h1         1 LQD       0.035700
     28 H4          -1.7640    -0.6220    -3.8290 h1         1 LQD       0.035700
     29 H10         -2.5820     0.0100     1.4480 ha         1 LQD       0.104000
     30 H11          1.5610    -0.0070     4.1590 ha         1 LQD       0.099000
     31 H12          1.6770     2.4590    -5.7860 ha         1 LQD       0.107000
     32 H13         -0.3720    -3.5150    -2.9240 h1         1 LQD       0.004200
     33 H14         -2.0220    -3.4220    -3.5530 h1         1 LQD       0.004200
     34 H15         -1.6850    -4.3550    -2.0880 h1         1 LQD       0.004200
     35 H16         -0.7450    -2.7030    -0.0020 h1         1 LQD       0.004200
     36 H17         -2.2860    -1.8430     0.1180 h1         1 LQD       0.004200
     37 H18         -2.2630    -3.5630    -0.2960 h1         1 LQD       0.004200
     38 H19         -0.2870    -1.3820    -8.1820 ha         1 LQD       0.119000
     39 H20         -1.3220    -2.5770    -6.7850 h1         1 LQD      -0.001300
     40 H21         -2.3120    -1.4660    -7.7410 h1         1 LQD      -0.001300
     41 H22         -2.9620    -2.1760    -6.2570 h1         1 LQD      -0.001300
     42 H23         -2.7020     0.0040     3.8920 ha         1 LQD       0.102000
     43 H24         -0.6440    -0.0050     5.2430 ha         1 LQD       0.099000
     44 H25          2.7090     1.6440    -7.8710 ha         1 LQD       0.104000
     45 H26          1.7280    -0.2750    -9.0680 ha         1 LQD       0.099000
     46 H28          0.3560    -1.6490    -1.8810 h1         1 LQD       0.028700
     47 H29         -1.4450     1.8010    -2.2780 h1         1 LQD       0.016200
     48 H30          0.2290     1.7870    -1.6800 h1         1 LQD       0.016200
     49 C12         -0.5150     1.4960    -4.5350 c3         1 LQD       0.221100
     50 C15          3.2230     0.0010     1.6690 c3         1 LQD      -0.005400
     51 O17         -1.5530    -0.6880    -5.9930 os         1 LQD      -0.306900
     52 H5          -1.5930     1.4720    -4.6320 h1         1 LQD       0.015700
     53 H6          -0.1920     2.5130    -4.3470 h1         1 LQD       0.015700
     54 H7           3.4360     0.8810     2.2630 h1         1 LQD       0.016700
     55 H8           3.8380     0.0090     0.7770 h1         1 LQD       0.016700
     56 H9           3.4410    -0.8880     2.2490 h1         1 LQD       0.016700
@<TRIPOS>BOND
     1     1     2 1   
     2     1     3 2   
     3     1    18 1   
     4     2    20 1   
     5     2    22 1   
     6     2    25 1   
     7     3    17 1   
     8     3    26 1   
     9     4    19 1   
    10     4    20 1   
    11     4    27 1   
    12     4    28 1   
    13     5    11 ar  
    14     5    23 ar  
    15     5    51 1   
    16     6    13 ar  
    17     6    18 ar  
    18     6    29 1   
    19     7    14 ar  
    20     7    21 ar  
    21     7    30 1   
    22     8    15 ar  
    23     8    23 ar  
    24     8    31 1   
    25     9    24 1   
    26     9    32 1   
    27     9    33 1   
    28     9    34 1   
    29    10    24 1   
    30    10    35 1   
    31    10    36 1   
    32    10    37 1   
    33    11    16 ar  
    34    11    38 1   
    35    12    39 1   
    36    12    40 1   
    37    12    41 1   
    38    12    51 1   
    39    13    14 ar  
    40    13    42 1   
    41    14    43 1   
    42    15    16 ar  
    43    15    44 1   
    44    16    45 1   
    45    17    21 1   
    46    17    50 1   
    47    18    21 ar  
    48    19    22 1   
    49    19    49 1   
    50    20    24 1   
    51    20    46 1   
    52    22    47 1   
    53    22    48 1   
    54    23    49 1   
    55    49    52 1   
    56    49    53 1   
    57    50    54 1   
    58    50    55 1   
    59    50    56 1   
@<TRIPOS>SUBSTRUCTURE
     1 LQD         1 TEMP              0 ****  ****    0 ROOT
