@<TRIPOS>MOLECULE
molecule
   56    59     1     0     0
SMALL
bcc


@<TRIPOS>ATOM
      1 C1           0.0000     0.0000     0.0000 cc         1 LQD      -0.155400
      2 C2          -0.8970     0.0010    -1.2110 c3         1 LQD       0.000500
      3 C3           1.3430     0.0000     0.0000 cd         1 LQD      -0.090100
      4 C11         -0.7290    -0.7070    -3.5210 c3         1 LQD       0.150800
      5 C14         -0.4390    -0.0820    -6.4810 ca         1 LQD       0.141100
      6 C16         -1.6720     0.0060     2.0350 ca         1 LQD      -0.082000
      7 C18          0.6610    -0.0040     3.5560 ca         1 LQD      -0.142000
      8 C19          1.2440     1.6150    -6.3100 ca         1 LQD      -0.078000
      9 C20         -1.4200    -3.4700    -2.6540 c3         1 LQD       0.150600
     10 C21         -1.7450    -2.6190    -0.4110 c3         1 LQD       0.150600
     11 C22          0.1430    -0.5390    -7.6550 ca         1 LQD      -0.220000
     12 C23         -2.0690    -1.7940    -6.7380 c3         1 LQD       0.125700
     13 C24         -1.7370     0.0030     3.4000 ca         1 LQD      -0.159000
     14 C25         -0.5760    -0.0020     4.1620 ca         1 LQD      -0.112000
     15 C26          1.8230     1.1580    -7.4800 ca         1 LQD      -0.168000
     16 C27          1.2730     0.0810    -8.1520 ca         1 LQD      -0.091000
     17 N4           1.8080     0.0000     1.2870 na         1 LQD      -0.074400
     18 C5          -0.4280     0.0050     1.4010 ca         1 LQD      -0.098800
     19 N6          -0.1040     0.6370    -3.4160 n3         1 LQD      -0.708600
     20 C7          -0.6340    -1.2550    -2.0740 c3         1 LQD       0.167500
     21 C8           0.7510     0.0000     2.1670 ca         1 LQD      -0.037200
     22 C9          -0.5600     1.1940    -2.1250 c3         1 LQD       0.149800
     23 C10          0.1150     0.9970    -5.8100 ca         1 LQD      -0.104300
     24 N13         -1.6630    -2.2740    -1.8360 n3         1 LQD      -0.729600
     25 H1          -1.9380     0.0400    -0.9140 hc         1 LQD       0.075700
     26 H2           1.9650     0.0010    -0.8870 h4         1 LQD       0.177000
     27 H3          -0.1680    -1.3350    -4.2030 h1         1 LQD       0.059700
     28 H4          -1.7640    -0.6220    -3.8290 h1         1 LQD       0.059700
     29 H10         -2.5820     0.0100     1.4480 ha         1 LQD       0.130000
     30 H11          1.5610    -0.0070     4.1590 ha         1 LQD       0.124000
     31 H12          1.6770     2.4590    -5.7860 ha         1 LQD       0.136000
     32 H13         -0.3720    -3.5150    -2.9240 h1         1 LQD       0.032200
     33 H14         -2.0220    -3.4220    -3.5530 h1         1 LQD       0.032200
     34 H15         -1.6850    -4.3550    -2.0880 h1         1 LQD       0.032200
     35 H16         -0.7450    -2.7030    -0.0020 h1         1 LQD       0.032200
     36 H17         -2.2860    -1.8430     0.1180 h1         1 LQD       0.032200
     37 H18         -2.2630    -3.5630    -0.2960 h1         1 LQD       0.032200
     38 H19         -0.2870    -1.3820    -8.1820 ha         1 LQD       0.133000
     39 H20         -1.3220    -2.5770    -6.7850 h1         1 LQD       0.041700
     40 H21         -2.3120    -1.4660    -7.7410 h1         1 LQD       0.041700
     41 H22         -2.9620    -2.1760    -6.2570 h1         1 LQD       0.041700
     42 H23         -2.7020     0.0040     3.8920 ha         1 LQD       0.127000
     43 H24         -0.6440    -0.0050     5.2430 ha         1 LQD       0.128000
     44 H25          2.7090     1.6440    -7.8710 ha         1 LQD       0.130000
     45 H26          1.7280    -0.2750    -9.0680 ha         1 LQD       0.129000
     46 H28          0.3560    -1.6490    -1.8810 h1         1 LQD       0.041700
     47 H29         -1.4450     1.8010    -2.2780 h1         1 LQD       0.044700
     48 H30          0.2290     1.7870    -1.6800 h1         1 LQD       0.044700
     49 C12         -0.5150     1.4960    -4.5350 c3         1 LQD       0.209100
     50 C15          3.2230     0.0010     1.6690 c3         1 LQD       0.041600
     51 O17         -1.5530    -0.6880    -5.9930 os         1 LQD      -0.329900
     52 H5          -1.5930     1.4720    -4.6320 h1         1 LQD       0.044200
     53 H6          -0.1920     2.5130    -4.3470 h1         1 LQD       0.044200
     54 H7           3.4360     0.8810     2.2630 h1         1 LQD       0.048033
     55 H8           3.8380     0.0090     0.7770 h1         1 LQD       0.048033
     56 H9           3.4410    -0.8880     2.2490 h1         1 LQD       0.048033
@<TRIPOS>BOND
     1    12    51 1
     2    51     5 1
     3    11     5 ar
     4    11    16 ar
     5     5    23 ar
     6    16    15 ar
     7    23    49 1
     8    23     8 ar
     9    49    19 1
    10    15     8 ar
    11    22    19 1
    12    22     2 1
    13    13    14 ar
    14    13     6 ar
    15    14     7 ar
    16    19     4 1
    17     6    18 ar
    18     7    21 ar
    19    18    21 ar
    20    18     1 1
    21    21    17 1
    22    17    50 1
    23    17     3 1
    24     1     2 1
    25     1     3 2
    26     2    20 1
    27     4    20 1
    28    20    24 1
    29    24     9 1
    30    24    10 1
    31     2    25 1
    32     3    26 1
    33     4    27 1
    34     4    28 1
    35    49    52 1
    36    49    53 1
    37    50    54 1
    38    50    55 1
    39    50    56 1
    40     6    29 1
    41     7    30 1
    42     8    31 1
    43     9    32 1
    44     9    33 1
    45     9    34 1
    46    10    35 1
    47    10    36 1
    48    10    37 1
    49    11    38 1
    50    12    39 1
    51    12    40 1
    52    12    41 1
    53    13    42 1
    54    14    43 1
    55    15    44 1
    56    16    45 1
    57    20    46 1
    58    22    47 1
    59    22    48 1
@<TRIPOS>SUBSTRUCTURE
     1 LQD         1 TEMP              0 ****  ****    0 ROOT
