@<TRIPOS>MOLECULE
molecule
   55    58     1     0     0
SMALL
bcc


@<TRIPOS>ATOM
      1 C1           0.0000     0.0000     0.0000 ca         1 LQE      -0.102300
      2 C2           1.3760     0.0000     0.0000 ca         1 LQE      -0.041300
      3 C3          -0.8070     0.0190     1.2670 c3         1 LQE      -0.022100
      4 C11          1.3830    -0.0140    -2.4070 ca         1 LQE      -0.091000
      5 C12         -0.7600    -0.0900     3.7430 c3         1 LQE      -0.075400
      6 C13         -2.6940    -0.0290    -2.4900 c3         1 LQE       0.129700
      7 C15          0.1040    -0.3410     4.9790 c3         1 LQE      -0.065700
      8 C16          1.3510     0.5450     4.8950 c3         1 LQE       0.166800
      9 C18         -0.6910     0.0080     6.2400 c3         1 LQE      -0.033100
     10 C19          0.1170    -0.3560     7.4580 ca         1 LQE      -0.044300
     11 C20          0.0050    -1.6170     8.0090 ca         1 LQE      -0.155000
     12 C21          0.9740     0.5720     8.0210 ca         1 LQE      -0.169000
     13 C22          0.7490    -1.9520     9.1320 ca         1 LQE       0.144100
     14 C23          1.7170     0.2400     9.1400 ca         1 LQE      -0.088000
     15 C24          1.6040    -1.0180     9.6980 ca         1 LQE      -0.225000
     16 C26          1.4350    -3.4670    10.8300 c3         1 LQE       0.129700
     17 C4          -0.6880    -0.0110    -1.2110 ca         1 LQE       0.140100
     18 C5           2.1820     0.0000     1.2690 c3         1 LQE      -0.032100
     19 C6           2.0650    -0.0050    -1.2070 ca         1 LQE      -0.167000
     20 C7           0.0430    -0.3910     2.4730 c3         1 LQE      -0.062700
     21 C8           0.0010    -0.0170    -2.4120 ca         1 LQE      -0.224000
     22 O9          -2.0480    -0.0180    -1.2150 os         1 LQE      -0.330900
     23 C10          1.3300     0.4410     2.4630 c3         1 LQE       0.178500
     24 N14          2.1030     0.1910     3.6880 n3         1 LQE      -0.732600
     25 O25          0.6400    -3.1920     9.6770 os         1 LQE      -0.329900
     26 H1          -1.1680     1.0270     1.4290 hc         1 LQE       0.059200
     27 H2          -1.6210    -0.6890     1.1660 hc         1 LQE       0.059200
     28 H3           1.9300    -0.0180    -3.3420 ha         1 LQE       0.129000
     29 H4          -1.0750     0.9470     3.7300 hc         1 LQE       0.042700
     30 H5          -1.6300    -0.7340     3.7770 hc         1 LQE       0.042700
     31 H6          -3.7680    -0.0330    -2.3510 h1         1 LQE       0.041033
     32 H7          -2.4050     0.8530    -3.0490 h1         1 LQE       0.041033
     33 H8          -2.3970    -0.9160    -3.0370 h1         1 LQE       0.041033
     34 H9           0.4010    -1.3820     5.0070 hc         1 LQE       0.072700
     35 H10          1.0530     1.5850     4.8430 h1         1 LQE       0.037700
     36 H11          1.9700     0.3820     5.7680 h1         1 LQE       0.037700
     37 H12          3.8250     0.9090     4.6420 h1         1 LQE       0.031367
     38 H13          3.2440     1.9050     3.3010 h1         1 LQE       0.031367
     39 H14          4.0650     0.3730     2.9730 h1         1 LQE       0.031367
     40 H15         -1.6220    -0.5460     6.2450 hc         1 LQE       0.051700
     41 H16         -0.9030     1.0700     6.2510 hc         1 LQE       0.051700
     42 H17         -0.6640    -2.3450     7.5660 ha         1 LQE       0.144000
     43 H18          1.0640     1.5590     7.5850 ha         1 LQE       0.130000
     44 H19          2.3860     0.9690     9.5800 ha         1 LQE       0.128000
     45 H20          2.1860    -1.2770    10.5740 ha         1 LQE       0.133000
     46 H21          2.4830    -3.3490    10.5830 h1         1 LQE       0.040700
     47 H22          1.2540    -4.4830    11.1610 h1         1 LQE       0.040700
     48 H23          1.1720    -2.7770    11.6230 h1         1 LQE       0.040700
     49 H24          2.5340    -1.0080     1.4520 hc         1 LQE       0.062700
     50 H25          3.0020     0.6990     1.1550 hc         1 LQE       0.062700
     51 H26          3.1490    -0.0020    -1.2050 ha         1 LQE       0.130000
     52 H27          0.2800    -1.4470     2.4220 hc         1 LQE       0.070700
     53 H28         -0.5400    -0.0240    -3.3510 ha         1 LQE       0.134000
     54 H29          1.0920     1.4950     2.3820 h1         1 LQE       0.032700
     55 C17          3.3940     0.8910     3.6480 c3         1 LQE       0.152100
@<TRIPOS>BOND
     1     6    22 1
     2    21     4 ar
     3    21    17 ar
     4    22    17 1
     5     4    19 ar
     6    17     1 ar
     7    19     2 ar
     8     1     2 ar
     9     1     3 1
    10     2    18 1
    11     3    20 1
    12    18    23 1
    13    20    23 1
    14    20     5 1
    15    16    25 1
    16    23    24 1
    17    25    13 1
    18     5     7 1
    19    13    11 ar
    20    13    15 ar
    21    24    55 1
    22    24     8 1
    23    11    10 ar
    24     7     8 1
    25     7     9 1
    26    15    14 ar
    27    10     9 1
    28    10    12 ar
    29    14    12 ar
    30     3    26 1
    31     3    27 1
    32     4    28 1
    33     5    29 1
    34     5    30 1
    35     6    31 1
    36     6    32 1
    37     6    33 1
    38     7    34 1
    39     8    35 1
    40     8    36 1
    41    55    37 1
    42    55    38 1
    43    55    39 1
    44     9    40 1
    45     9    41 1
    46    11    42 1
    47    12    43 1
    48    14    44 1
    49    15    45 1
    50    16    46 1
    51    16    47 1
    52    16    48 1
    53    18    49 1
    54    18    50 1
    55    19    51 1
    56    20    52 1
    57    21    53 1
    58    23    54 1
@<TRIPOS>SUBSTRUCTURE
     1 LQE         1 TEMP              0 ****  ****    0 ROOT
