@<TRIPOS>MOLECULE
LQE
   55    58     1     0     0
SMALL
bcc


@<TRIPOS>ATOM
      1 C1           0.0000     0.0000     0.0000 ca         1 LQE      -0.115300
      2 C2           1.3760     0.0000     0.0000 ca         1 LQE      -0.040300
      3 C3          -0.8070     0.0190     1.2670 c3         1 LQE       0.042900
      4 C11          1.3830    -0.0140    -2.4070 ca         1 LQE      -0.058000
      5 C12         -0.7600    -0.0900     3.7430 c3         1 LQE      -0.025400
      6 C13         -2.6940    -0.0290    -2.4900 c3         1 LQE       0.243700
      7 C15          0.1040    -0.3410     4.9790 c3         1 LQE      -0.047700
      8 C16          1.3510     0.5450     4.8950 c3         1 LQE       0.143800
      9 C18         -0.6910     0.0080     6.2400 c3         1 LQE       0.030900
     10 C19          0.1170    -0.3560     7.4580 ca         1 LQE      -0.046300
     11 C20          0.0050    -1.6170     8.0090 ca         1 LQE      -0.138000
     12 C21          0.9740     0.5720     8.0210 ca         1 LQE      -0.150000
     13 C22          0.7490    -1.9520     9.1320 ca         1 LQE       0.155100
     14 C23          1.7170     0.2400     9.1400 ca         1 LQE      -0.054000
     15 C24          1.6040    -1.0180     9.6980 ca         1 LQE      -0.216000
     16 C26          1.4350    -3.4670    10.8300 c3         1 LQE       0.244700
     17 C4          -0.6880    -0.0110    -1.2110 ca         1 LQE       0.151100
     18 C5           2.1820     0.0000     1.2690 c3         1 LQE       0.022900
     19 C6           2.0650    -0.0050    -1.2070 ca         1 LQE      -0.147000
     20 C7           0.0430    -0.3910     2.4730 c3         1 LQE      -0.045700
     21 C8           0.0010    -0.0170    -2.4120 ca         1 LQE      -0.216000
     22 O9          -2.0480    -0.0180    -1.2150 os         1 LQE      -0.308900
     23 C10          1.3300     0.4410     2.4630 c3         1 LQE       0.132500
     24 N14          2.1030     0.1910     3.6880 n3         1 LQE      -0.538600
     25 O25          0.6400    -3.1920     9.6770 os         1 LQE      -0.307900
     26 H1          -1.1680     1.0270     1.4290 hc         1 LQE       0.028700
     27 H2          -1.6210    -0.6890     1.1660 hc         1 LQE       0.028700
     28 H3           1.9300    -0.0180    -3.3420 ha         1 LQE       0.100000
     29 H4          -1.0750     0.9470     3.7300 hc         1 LQE       0.017200
     30 H5          -1.6300    -0.7340     3.7770 hc         1 LQE       0.017200
     31 H6          -3.7680    -0.0330    -2.3510 h1         1 LQE      -0.002967
     32 H7          -2.4050     0.8530    -3.0490 h1         1 LQE      -0.002967
     33 H8          -2.3970    -0.9160    -3.0370 h1         1 LQE      -0.002967
     34 H9           0.4010    -1.3820     5.0070 hc         1 LQE       0.046700
     35 H10          1.0530     1.5850     4.8430 h1         1 LQE       0.017200
     36 H11          1.9700     0.3820     5.7680 h1         1 LQE       0.017200
     37 H12          3.8250     0.9090     4.6420 h1         1 LQE       0.002367
     38 H13          3.2440     1.9050     3.3010 h1         1 LQE       0.002367
     39 H14          4.0650     0.3730     2.9730 h1         1 LQE       0.002367
     40 H15         -1.6220    -0.5460     6.2450 hc         1 LQE       0.021700
     41 H16         -0.9030     1.0700     6.2510 hc         1 LQE       0.021700
     42 H17         -0.6640    -2.3450     7.5660 ha         1 LQE       0.120000
     43 H18          1.0640     1.5590     7.5850 ha         1 LQE       0.110000
     44 H19          2.3860     0.9690     9.5800 ha         1 LQE       0.099000
     45 H20          2.1860    -1.2770    10.5740 ha         1 LQE       0.120000
     46 H21          2.4830    -3.3490    10.5830 h1         1 LQE      -0.002967
     47 H22          1.2540    -4.4830    11.1610 h1         1 LQE      -0.002967
     48 H23          1.1720    -2.7770    11.6230 h1         1 LQE      -0.002967
     49 H24          2.5340    -1.0080     1.4520 hc         1 LQE       0.033700
     50 H25          3.0020     0.6990     1.1550 hc         1 LQE       0.033700
     51 H26          3.1490    -0.0020    -1.2050 ha         1 LQE       0.107000
     52 H27          0.2800    -1.4470     2.4220 hc         1 LQE       0.046700
     53 H28         -0.5400    -0.0240    -3.3510 ha         1 LQE       0.120000
     54 H29          1.0920     1.4950     2.3820 h1         1 LQE       0.018700
     55 C17          3.3940     0.8910     3.6480 c3         1 LQE       0.177100
@<TRIPOS>BOND
     1     1     2 ar  
     2     1     3 1   
     3     1    17 ar  
     4     2    18 1   
     5     2    19 ar  
     6     3    20 1   
     7     3    26 1   
     8     3    27 1   
     9     4    19 ar  
    10     4    21 ar  
    11     4    28 1   
    12     5     7 1   
    13     5    20 1   
    14     5    29 1   
    15     5    30 1   
    16     6    22 1   
    17     6    31 1   
    18     6    32 1   
    19     6    33 1   
    20     7     8 1   
    21     7     9 1   
    22     7    34 1   
    23     8    24 1   
    24     8    35 1   
    25     8    36 1   
    26     9    10 1   
    27     9    40 1   
    28     9    41 1   
    29    10    11 ar  
    30    10    12 ar  
    31    11    13 ar  
    32    11    42 1   
    33    12    14 ar  
    34    12    43 1   
    35    13    15 ar  
    36    13    25 1   
    37    14    15 ar  
    38    14    44 1   
    39    15    45 1   
    40    16    25 1   
    41    16    46 1   
    42    16    47 1   
    43    16    48 1   
    44    17    21 ar  
    45    17    22 1   
    46    18    23 1   
    47    18    49 1   
    48    18    50 1   
    49    19    51 1   
    50    20    23 1   
    51    20    52 1   
    52    21    53 1   
    53    23    24 1   
    54    23    54 1   
    55    24    55 1   
    56    37    55 1   
    57    38    55 1   
    58    39    55 1   
@<TRIPOS>SUBSTRUCTURE
     1 LQE         1 TEMP              0 ****  ****    0 ROOT
