@<TRIPOS>MOLECULE
LQH
   33    36     1     0     0
SMALL
bcc


@<TRIPOS>ATOM
      1 C2           0.0000     0.0000     0.0000 cc         1 LQH      -0.068300
      2 C3           2.1050    -0.0000    -1.1660 cc         1 LQH      -0.031300
      3 C11         -0.6110    -1.0880     2.1560 ca         1 LQH      -0.064000
      4 C12         -0.0420    -0.0010    -2.4320 ca         1 LQH       0.003000
      5 C13          2.0460    -0.0010    -3.6680 ca         1 LQH      -0.045000
      6 C14         -2.1380     1.1130     2.8840 ca         1 LQH      -0.134000
      7 C16         -1.2730    -1.0730     3.3660 ca         1 LQH      -0.114000
      8 C17         -0.7490    -0.0010    -3.6380 ca         1 LQH      -0.105000
      9 C18          1.3290    -0.0020    -4.8460 ca         1 LQH      -0.121000
     10 C19         -2.0340     0.0240     3.7300 ca         1 LQH      -0.065000
     11 C20         -0.0590    -0.0010    -4.8290 ca         1 LQH      -0.079000
     12 N1           1.3810     0.0000     0.0000 na         1 LQH       0.239900
     13 C4           2.3200     0.0000     1.1370 c3         1 LQH      -0.061700
     14 C5          -0.7110     0.0060     1.2950 ca         1 LQH      -0.087000
     15 C6          -0.7270    -0.0000    -1.1410 cd         1 LQH      -0.163000
     16 C7           1.3690     0.0000    -2.4510 ca         1 LQH      -0.052000
     17 N8           3.3990    -0.0000    -0.9730 n2         1 LQH      -0.360200
     18 C9           3.7030    -0.0010     0.4620 c3         1 LQH       0.168800
     19 C10         -1.4860     1.1090     1.6650 ca         1 LQH       0.131900
     20 F15         -1.5880     2.1740     0.8390 f          1 LQH      -0.121900
     21 H2           3.1300    -0.0020    -3.6890 ha         1 LQH       0.126000
     22 H3          -2.7370     1.9680     3.1740 ha         1 LQH       0.123000
     23 H4          -1.1960    -1.9230     4.0340 ha         1 LQH       0.110000
     24 H5          -1.8320    -0.0010    -3.6340 ha         1 LQH       0.109000
     25 H6           1.8540    -0.0020    -5.7930 ha         1 LQH       0.105000
     26 H7          -2.5490     0.0310     4.6830 ha         1 LQH       0.108000
     27 H8          -0.6060    -0.0020    -5.7650 ha         1 LQH       0.100000
     28 H9           2.1900    -0.8930     1.7370 h1         1 LQH       0.027200
     29 H10          2.1910     0.8930     1.7360 h1         1 LQH       0.027200
     30 H11         -1.8020    -0.1270    -1.0980 ha         1 LQH       0.128000
     31 H13          4.2560     0.8910     0.7310 h1         1 LQH       0.026700
     32 H14          4.2550    -0.8930     0.7310 h1         1 LQH       0.026700
     33 H1          -0.0160    -1.9480     1.8730 ha         1 LQH       0.114000
@<TRIPOS>BOND
     1     1    12 1   
     2     1    14 1   
     3     1    15 2   
     4     2    12 1   
     5     2    16 1   
     6     2    17 2   
     7     3     7 ar  
     8     3    14 ar  
     9     3    33 1   
    10     4     8 ar  
    11     4    15 1   
    12     4    16 ar  
    13     5     9 ar  
    14     5    16 ar  
    15     5    21 1   
    16     6    10 ar  
    17     6    19 ar  
    18     6    22 1   
    19     7    10 ar  
    20     7    23 1   
    21     8    11 ar  
    22     8    24 1   
    23     9    11 ar  
    24     9    25 1   
    25    10    26 1   
    26    11    27 1   
    27    12    13 1   
    28    13    18 1   
    29    13    28 1   
    30    13    29 1   
    31    14    19 ar  
    32    15    30 1   
    33    17    18 1   
    34    18    31 1   
    35    18    32 1   
    36    19    20 1   
@<TRIPOS>SUBSTRUCTURE
     1 LQH         1 TEMP              0 ****  ****    0 ROOT
