@<TRIPOS>MOLECULE
molecule
   33    36     1     0     0
SMALL
bcc


@<TRIPOS>ATOM
      1 C2           0.0000     0.0000     0.0000 cc         1 LQH       0.083700
      2 C3           2.1050    -0.0000    -1.1660 cc         1 LQH       0.111700
      3 C11         -0.6110    -1.0880     2.1560 ca         1 LQH      -0.085000
      4 C12         -0.0420    -0.0010    -2.4320 ca         1 LQH       0.009000
      5 C13          2.0460    -0.0010    -3.6680 ca         1 LQH      -0.072000
      6 C14         -2.1380     1.1130     2.8840 ca         1 LQH      -0.170000
      7 C16         -1.2730    -1.0730     3.3660 ca         1 LQH      -0.148000
      8 C17         -0.7490    -0.0010    -3.6380 ca         1 LQH      -0.134000
      9 C18          1.3290    -0.0020    -4.8460 ca         1 LQH      -0.149000
     10 C19         -2.0340     0.0240     3.7300 ca         1 LQH      -0.093000
     11 C20         -0.0590    -0.0010    -4.8290 ca         1 LQH      -0.105000
     12 N1           1.3810     0.0000     0.0000 na         1 LQH      -0.180100
     13 C4           2.3200     0.0000     1.1370 c3         1 LQH       0.010300
     14 C5          -0.7110     0.0060     1.2950 ca         1 LQH      -0.102000
     15 C6          -0.7270    -0.0000    -1.1410 cd         1 LQH      -0.203000
     16 C7           1.3690     0.0000    -2.4510 ca         1 LQH      -0.052000
     17 N8           3.3990    -0.0000    -0.9730 n2         1 LQH      -0.380200
     18 C9           3.7030    -0.0010     0.4620 c3         1 LQH       0.105800
     19 C10         -1.4860     1.1090     1.6650 ca         1 LQH       0.157900
     20 F15         -1.5880     2.1740     0.8390 f          1 LQH      -0.127900
     21 H2           3.1300    -0.0020    -3.6890 ha         1 LQH       0.155000
     22 H3          -2.7370     1.9680     3.1740 ha         1 LQH       0.150000
     23 H4          -1.1960    -1.9230     4.0340 ha         1 LQH       0.139000
     24 H5          -1.8320    -0.0010    -3.6340 ha         1 LQH       0.136000
     25 H6           1.8540    -0.0020    -5.7930 ha         1 LQH       0.133000
     26 H7          -2.5490     0.0310     4.6830 ha         1 LQH       0.139000
     27 H8          -0.6060    -0.0020    -5.7650 ha         1 LQH       0.130000
     28 H9           2.1900    -0.8930     1.7370 h1         1 LQH       0.055700
     29 H10          2.1910     0.8930     1.7360 h1         1 LQH       0.055700
     30 H11         -1.8020    -0.1270    -1.0980 ha         1 LQH       0.154000
     31 H13          4.2560     0.8910     0.7310 h1         1 LQH       0.065700
     32 H14          4.2550    -0.8930     0.7310 h1         1 LQH       0.065700
     33 H1          -0.0160    -1.9480     1.8730 ha         1 LQH       0.145000
@<TRIPOS>BOND
     1    18    13 1
     2    18    17 1
     3    13    12 1
     4    17     2 2
     5    12     2 1
     6    12     1 1
     7     2    16 1
     8    10     6 ar
     9    10     7 ar
    10     6    19 ar
    11     7     3 ar
    12    19    20 1
    13    19    14 ar
    14     3    14 ar
    15    14     1 1
    16     1    15 2
    17    16     5 ar
    18    16     4 ar
    19     5     9 ar
    20    15     4 1
    21     4     8 ar
    22     9    11 ar
    23     8    11 ar
    24     3    33 1
    25     5    21 1
    26     6    22 1
    27     7    23 1
    28     8    24 1
    29     9    25 1
    30    10    26 1
    31    11    27 1
    32    13    28 1
    33    13    29 1
    34    15    30 1
    35    18    31 1
    36    18    32 1
@<TRIPOS>SUBSTRUCTURE
     1 LQH         1 TEMP              0 ****  ****    0 ROOT
