@<TRIPOS>MOLECULE
LQQ
   62    66     1     0     0
SMALL
bcc


@<TRIPOS>ATOM
      1 O01         0.5400   -0.6290    0.3990 o         1 LQQ     -0.532100
      2 C02         1.6850   -0.2370    0.1490 c         1 LQQ      0.605300
      3 C01         2.6280    0.2020    1.2220 c3        1 LQQ     -0.200100
      4 C03         2.2120   -0.1930   -1.2390 cc        1 LQQ     -0.301400
      5 C04         2.2360   -1.2850   -2.0540 cd        1 LQQ      0.110600
      6 C05         1.7320   -2.6160   -1.6330 c3        1 LQQ     -0.087900
      7 C06         2.7830   -1.1570   -3.3740 ca        1 LQQ     -0.420400
      8 C07         2.8860   -2.2500   -4.2740 ca        1 LQQ      0.515200
      9 N01         3.3840   -2.1680   -5.5000 nb        1 LQQ     -0.752000
     10 C08         3.8170   -0.8920   -5.9040 ca        1 LQQ      0.911900
     11 N02         3.7850    0.2310   -5.1200 nb        1 LQQ     -0.796000
     12 C09         3.2600    0.1120   -3.8530 ca        1 LQQ      0.629200
     13 N03         3.1960    1.2360   -3.0240 n         1 LQQ     -0.411300
     14 C10         3.6450    2.5420   -3.5090 c3        1 LQQ      0.096700
     15 C11         2.5610    3.6420   -3.5020 c3        1 LQQ     -0.091900
     16 C12         3.3190    4.9590   -3.4190 c3        1 LQQ     -0.074900
     17 C13         4.7350    4.6500   -2.9460 c3        1 LQQ     -0.074900
     18 C14         4.8350    3.1470   -2.7330 c3        1 LQQ     -0.091900
     19 C15         2.6990    1.1180   -1.7010 c         1 LQQ      0.719700
     20 O02         2.6790    2.1290   -0.9720 o         1 LQQ     -0.627500
     21 N04         4.2360   -0.7810   -7.2470 nh        1 LQQ     -0.788600
     22 C16         5.0520    0.3250   -7.6430 ca        1 LQQ      0.561200
     23 N05         6.3440    0.0770   -8.0280 nb        1 LQQ     -0.673000
     24 C17         7.0770    1.0960   -8.4720 ca        1 LQQ      0.384200
     25 C18         6.6160    2.4490   -8.5600 ca        1 LQQ      0.028300
     26 C19         5.2890    2.6830   -8.1450 ca        1 LQQ     -0.153000
     27 C20         4.5010    1.6270   -7.6920 ca        1 LQQ     -0.171300
     28 N06         7.4440    3.4400   -9.1290 nh        1 LQQ     -0.629000
     29 C21         8.7860    3.5370   -8.5690 c3        1 LQQ      0.185300
     30 C22         9.6890    4.5000   -9.3670 c3        1 LQQ      0.159300
     31 N07         9.0710    5.7920   -9.5910 n3        1 LQQ     -0.820200
     32 C23         7.7410    5.6910  -10.1560 c3        1 LQQ      0.159300
     33 C24         6.8250    4.7360   -9.3620 c3        1 LQQ      0.185300
     34 H011        2.2340   -0.0800    2.2280 hc        1 LQQ      0.073033
     35 H012        2.7400    1.3160    1.1730 hc        1 LQQ      0.073033
     36 H013        3.6310   -0.2630    1.0710 hc        1 LQQ      0.073033
     37 H051        2.5600   -3.3680   -1.6680 hc        1 LQQ      0.065700
     38 H052        1.3160   -2.5940   -0.5950 hc        1 LQQ      0.065700
     39 H053        0.9160   -2.9470   -2.3230 hc        1 LQQ      0.065700
     40 H1          2.5440   -3.2580   -3.9660 h4        1 LQQ      0.036100
     41 H10         3.9820    2.4290   -4.5830 h1        1 LQQ      0.091700
     42 H111        1.8770    3.5360   -2.6220 hc        1 LQQ      0.058450
     43 H112        1.9410    3.5820   -4.4290 hc        1 LQQ      0.058450
     44 H121        3.3440    5.4590   -4.4200 hc        1 LQQ      0.042700
     45 H122        2.8080    5.6560   -2.7100 hc        1 LQQ      0.042700
     46 H131        4.9630    5.1930   -1.9960 hc        1 LQQ      0.042700
     47 H132        5.4810    4.9860   -3.7100 hc        1 LQQ      0.042700
     48 H141        4.7700    2.9080   -1.6410 hc        1 LQQ      0.058450
     49 H142        5.8000    2.7390   -3.1210 hc        1 LQQ      0.058450
     50 H04         4.4920   -1.6570   -7.6690 hn        1 LQQ      0.450800
     51 H17         8.1020    0.8220   -8.7860 h4        1 LQQ      0.029100
     52 H19         4.8520    3.6920   -8.1710 ha        1 LQQ      0.144000
     53 H20         3.4660    1.8130   -7.3690 ha        1 LQQ      0.160000
     54 H211        8.7490    3.8810   -7.4950 h1        1 LQQ      0.046200
     55 H212        9.2650    2.5210   -8.5950 h1        1 LQQ      0.046200
     56 H221       10.6250    4.6680   -8.7650 h1        1 LQQ      0.039200
     57 H222        9.9830    3.9930  -10.3320 h1        1 LQQ      0.039200
     58 H07         9.6550    6.3570  -10.1790 hn        1 LQQ      0.368800
     59 H231        7.2760    6.7160  -10.1220 h1        1 LQQ      0.039200
     60 H232        7.7570    5.3520  -11.2330 h1        1 LQQ      0.039200
     61 H241        6.5370    5.2350   -8.3920 h1        1 LQQ      0.046200
     62 H242        5.8910    4.5750   -9.9700 h1        1 LQQ      0.046200
@<TRIPOS>BOND
     1    1    2 2   
     2    2    3 1   
     3    2    4 1   
     4    3   34 1   
     5    3   35 1   
     6    3   36 1   
     7    4    5 2   
     8    4   19 1   
     9    5    6 1   
    10    5    7 1   
    11    6   37 1   
    12    6   38 1   
    13    6   39 1   
    14    7    8 ar  
    15    7   12 ar  
    16    8    9 ar  
    17    8   40 1   
    18    9   10 ar  
    19   10   11 ar  
    20   10   21 1   
    21   11   12 ar  
    22   12   13 1   
    23   13   14 1   
    24   13   19 1   
    25   14   15 1   
    26   14   18 1   
    27   14   41 1   
    28   15   16 1   
    29   15   42 1   
    30   15   43 1   
    31   16   17 1   
    32   16   44 1   
    33   16   45 1   
    34   17   18 1   
    35   17   46 1   
    36   17   47 1   
    37   18   48 1   
    38   18   49 1   
    39   19   20 2   
    40   21   22 1   
    41   21   50 1   
    42   22   23 ar  
    43   22   27 ar  
    44   23   24 ar  
    45   24   25 ar  
    46   24   51 1   
    47   25   26 ar  
    48   25   28 1   
    49   26   27 ar  
    50   26   52 1   
    51   27   53 1   
    52   28   29 1   
    53   28   33 1   
    54   29   30 1   
    55   29   54 1   
    56   29   55 1   
    57   30   31 1   
    58   30   56 1   
    59   30   57 1   
    60   31   32 1   
    61   31   58 1   
    62   32   33 1   
    63   32   59 1   
    64   32   60 1   
    65   33   61 1   
    66   33   62 1   
@<TRIPOS>SUBSTRUCTURE
     1 LQQ         1 TEMP              0 ****  ****    0 ROOT
