@<TRIPOS>MOLECULE
molecule
   48    48     1     0     0
SMALL
bcc


@<TRIPOS>ATOM
      1 N01          0.0000     0.0000     0.0000 nz         1 LQT      -0.681400
      2 C02          1.3490     0.0000     0.0000 c          1 LQT       0.509700
      3 C03          2.0890     0.0000     1.2830 ca         1 LQT      -0.175600
      4 C04          1.4090    -0.0010     2.5050 ca         1 LQT      -0.253300
      5 C05          2.1400    -0.0010     3.6780 ca         1 LQT       0.460200
      6 N06          3.4570    -0.0010     3.6550 nb         1 LQT      -0.631000
      7 C07          4.1370    -0.0000     2.5250 ca         1 LQT       0.461600
      8 C08          5.6430    -0.0010     2.5630 c3         1 LQT       0.104500
      9 N09          6.1290     1.3790     2.6970 n7         1 LQT      -0.798200
     10 C10          7.5970     1.4190     2.7390 c3         1 LQT       0.081800
     11 C11          8.0580     2.8470     2.8750 c          1 LQT       0.659100
     12 N12          9.3750     3.1280     2.9350 n          1 LQT      -0.490800
     13 C13         10.3580     2.0440     2.8650 c3         1 LQT       0.094000
     14 C14         10.7380     1.7930     1.4050 c3         1 LQT      -0.122100
     15 C15          9.8230     4.5160     3.0680 c3         1 LQT       0.109000
     16 C16          9.9410     4.8730     4.5520 c3         1 LQT       0.141800
     17 N17         10.3900     6.2660     4.6850 n3         1 LQT      -0.728600
     18 C18         10.2900     6.7200     6.0780 c3         1 LQT       0.149600
     19 C19         11.7590     6.4290     4.1750 c3         1 LQT       0.149600
     20 O20          7.2440     3.7440     2.9340 o          1 LQT      -0.589100
     21 C21          3.4870    -0.0050     1.3060 ca         1 LQT      -0.132300
     22 O22          1.9560    -0.0000    -1.0520 o          1 LQT      -0.402100
     23 HN01        -0.3340     0.8300     0.4490 hn         1 LQT       0.480467
     24 HN0A        -0.3340    -0.0260    -0.9430 hn         1 LQT       0.480467
     25 H04          0.3420     0.1830     2.5320 ha         1 LQT       0.122000
     26 H05          1.6220     0.0010     4.6290 h4         1 LQT       0.055100
     27 H08          5.9830    -0.5870     3.4080 h1         1 LQT       0.060700
     28 H08A         6.0270    -0.4310     1.6460 h1         1 LQT       0.060700
     29 HN09         5.7610     1.7830     3.5350 hn         1 LQT       0.383800
     30 H10          7.9960     0.9970     1.8240 h1         1 LQT       0.056200
     31 H10A         7.9500     0.8430     3.5850 h1         1 LQT       0.056200
     32 H13          9.9320     1.1420     3.2870 h1         1 LQT       0.051700
     33 H13A        11.2430     2.3220     3.4250 h1         1 LQT       0.051700
     34 H14         10.6660     0.7330     1.1900 hc         1 LQT       0.046033
     35 H14A        10.0630     2.3390     0.7570 hc         1 LQT       0.046033
     36 H14B        11.7530     2.1280     1.2330 hc         1 LQT       0.046033
     37 H15         10.7880     4.6310     2.5910 h1         1 LQT       0.071200
     38 H15A         9.1050     5.1740     2.5940 h1         1 LQT       0.071200
     39 H16         10.6600     4.2150     5.0250 h1         1 LQT       0.038700
     40 H16A         8.9760     4.7580     5.0290 h1         1 LQT       0.038700
     41 H18         10.9470     6.1240     6.7010 h1         1 LQT       0.034200
     42 H18A         9.2680     6.6080     6.4220 h1         1 LQT       0.034200
     43 H18B        10.5790     7.7620     6.1410 h1         1 LQT       0.034200
     44 H19         12.3550     5.5710     4.4590 h1         1 LQT       0.034200
     45 H19A        11.7340     6.5110     3.0950 h1         1 LQT       0.034200
     46 H19B        12.1960     7.3270     4.5950 h1         1 LQT       0.034200
     47 H21          4.0380    -0.1110     0.3790 ha         1 LQT       0.180000
     48 H013        -0.3340    -0.8470     0.4150 hn         1 LQT       0.480467
@<TRIPOS>BOND
     1     1     2 1
     2     2     3 1
     3     2    22 2
     4     3     4 ar
     5     3    21 ar
     6     4     5 ar
     7     5     6 ar
     8     6     7 ar
     9     7     8 1
    10     7    21 ar
    11     8     9 1
    12     9    10 1
    13    10    11 1
    14    11    12 1
    15    11    20 2
    16    12    13 1
    17    12    15 1
    18    13    14 1
    19    15    16 1
    20    16    17 1
    21    17    18 1
    22    17    19 1
    23     1    23 1
    24     1    24 1
    25     4    25 1
    26     5    26 1
    27     8    27 1
    28     8    28 1
    29     9    29 1
    30    10    30 1
    31    10    31 1
    32    13    32 1
    33    13    33 1
    34    14    34 1
    35    14    35 1
    36    14    36 1
    37    15    37 1
    38    15    38 1
    39    16    39 1
    40    16    40 1
    41    18    41 1
    42    18    42 1
    43    18    43 1
    44    19    44 1
    45    19    45 1
    46    19    46 1
    47    21    47 1
    48    48     1 1
@<TRIPOS>SUBSTRUCTURE
     1 LQT         1 TEMP              0 ****  ****    0 ROOT
