@<TRIPOS>MOLECULE
LQT
   48    48     1     0     0
SMALL
bcc


@<TRIPOS>ATOM
      1 N01          0.0000     0.0000     0.0000 nz         1 LQT       0.199600
      2 C02          1.3490     0.0000     0.0000 c          1 LQT       0.359700
      3 C03          2.0890     0.0000     1.2830 ca         1 LQT      -0.210600
      4 C04          1.4090    -0.0010     2.5050 ca         1 LQT      -0.217300
      5 C05          2.1400    -0.0010     3.6780 ca         1 LQT       0.442200
      6 N06          3.4570    -0.0010     3.6550 nb         1 LQT      -0.497000
      7 C07          4.1370    -0.0000     2.5250 ca         1 LQT       0.399600
      8 C08          5.6430    -0.0010     2.5630 c3         1 LQT       0.087500
      9 N09          6.1290     1.3790     2.6970 n7         1 LQT      -0.556200
     10 C10          7.5970     1.4190     2.7390 c3         1 LQT       0.066800
     11 C11          8.0580     2.8470     2.8750 c          1 LQT       0.583100
     12 N12          9.3750     3.1280     2.9350 n          1 LQT      -0.147800
     13 C13         10.3580     2.0440     2.8650 c3         1 LQT       0.037000
     14 C14         10.7380     1.7930     1.4050 c3         1 LQT      -0.023100
     15 C15          9.8230     4.5160     3.0680 c3         1 LQT       0.044000
     16 C16          9.9410     4.8730     4.5520 c3         1 LQT       0.131800
     17 N17         10.3900     6.2660     4.6850 n3         1 LQT      -0.537600
     18 C18         10.2900     6.7200     6.0780 c3         1 LQT       0.181100
     19 C19         11.7590     6.4290     4.1750 c3         1 LQT       0.181100
     20 O20          7.2440     3.7440     2.9340 o          1 LQT      -0.632100
     21 C21          3.4870    -0.0050     1.3060 ca         1 LQT      -0.078300
     22 O22          1.9560    -0.0000    -1.0520 o          1 LQT      -0.414100
     23 HN01        -0.3340     0.8300     0.4490 hn         1 LQT       0.248467
     24 HN0A        -0.3340    -0.0260    -0.9430 hn         1 LQT       0.248467
     25 H04          0.3420     0.1830     2.5320 ha         1 LQT       0.095000
     26 H05          1.6220     0.0010     4.6290 h4         1 LQT       0.004100
     27 H08          5.9830    -0.5870     3.4080 h1         1 LQT       0.025700
     28 H08A         6.0270    -0.4310     1.6460 h1         1 LQT       0.025700
     29 HN09         5.7610     1.7830     3.5350 hn         1 LQT       0.278800
     30 H10          7.9960     0.9970     1.8240 h1         1 LQT       0.026700
     31 H10A         7.9500     0.8430     3.5850 h1         1 LQT       0.026700
     32 H13          9.9320     1.1420     3.2870 h1         1 LQT       0.026200
     33 H13A        11.2430     2.3220     3.4250 h1         1 LQT       0.026200
     34 H14         10.6660     0.7330     1.1900 hc         1 LQT       0.012700
     35 H14A        10.0630     2.3390     0.7570 hc         1 LQT       0.012700
     36 H14B        11.7530     2.1280     1.2330 hc         1 LQT       0.012700
     37 H15         10.7880     4.6310     2.5910 h1         1 LQT       0.044200
     38 H15A         9.1050     5.1740     2.5940 h1         1 LQT       0.044200
     39 H16         10.6600     4.2150     5.0250 h1         1 LQT       0.013700
     40 H16A         8.9760     4.7580     5.0290 h1         1 LQT       0.013700
     41 H18         10.9470     6.1240     6.7010 h1         1 LQT       0.003033
     42 H18A         9.2680     6.6080     6.4220 h1         1 LQT       0.003033
     43 H18B        10.5790     7.7620     6.1410 h1         1 LQT       0.003033
     44 H19         12.3550     5.5710     4.4590 h1         1 LQT       0.003033
     45 H19A        11.7340     6.5110     3.0950 h1         1 LQT       0.003033
     46 H19B        12.1960     7.3270     4.5950 h1         1 LQT       0.003033
     47 H21          4.0380    -0.1110     0.3790 ha         1 LQT       0.146000
     48 H013        -0.3340    -0.8470     0.4150 hn         1 LQT       0.248467
@<TRIPOS>BOND
     1     1     2 1   
     2     1    23 1   
     3     1    24 1   
     4     1    48 1   
     5     2     3 1   
     6     2    22 2   
     7     3     4 ar  
     8     3    21 ar  
     9     4     5 ar  
    10     4    25 1   
    11     5     6 ar  
    12     5    26 1   
    13     6     7 ar  
    14     7     8 1   
    15     7    21 ar  
    16     8     9 1   
    17     8    27 1   
    18     8    28 1   
    19     9    10 1   
    20     9    29 1   
    21    10    11 1   
    22    10    30 1   
    23    10    31 1   
    24    11    12 1   
    25    11    20 2   
    26    12    13 1   
    27    12    15 1   
    28    13    14 1   
    29    13    32 1   
    30    13    33 1   
    31    14    34 1   
    32    14    35 1   
    33    14    36 1   
    34    15    16 1   
    35    15    37 1   
    36    15    38 1   
    37    16    17 1   
    38    16    39 1   
    39    16    40 1   
    40    17    18 1   
    41    17    19 1   
    42    18    41 1   
    43    18    42 1   
    44    18    43 1   
    45    19    44 1   
    46    19    45 1   
    47    19    46 1   
    48    21    47 1   
@<TRIPOS>SUBSTRUCTURE
     1 LQT         1 TEMP              0 ****  ****    0 ROOT
