@<TRIPOS>MOLECULE
LQY
   76    80     1     0     0
SMALL
bcc


@<TRIPOS>ATOM
      1 C            0.0000     0.0000     0.0000 c3         1 LQY       0.240700
      2 N            6.3040    -0.9200    -4.4950 ns         1 LQY      -0.238900
      3 O            1.4290     0.0000     0.0000 os         1 LQY      -0.309900
      4 C1           2.0450     0.0000     1.2100 ca         1 LQY       0.184100
      5 N1           7.1260    -2.1390    -7.8790 nz         1 LQY       0.202600
      6 O1           7.4340     0.8130    -3.6870 o          1 LQY      -0.630100
      7 C2           1.2890    -0.0010     2.3730 ca         1 LQY      -0.214000
      8 N2           5.7580     0.0040     4.5200 n2         1 LQY      -0.501300
      9 O2           5.8000    -2.8120    -6.2330 o          1 LQY      -0.398100
     10 C3           1.9090    -0.0010     3.6040 ca         1 LQY       0.028000
     11 N3           6.5300    -0.0060     5.6890 n          1 LQY       0.084200
     12 O3           6.6820     0.5460     7.8500 o          1 LQY      -0.645500
     13 C4           3.3050     0.0000     3.6880 ca         1 LQY      -0.181900
     14 C5           4.0720     0.0000     2.5230 ca         1 LQY      -0.072000
     15 C6           3.4430    -0.0050     1.2820 cp         1 LQY      -0.116000
     16 C7           4.2520    -0.0110     0.0400 cp         1 LQY       0.039000
     17 C8           5.2870     0.9110    -0.1220 ca         1 LQY      -0.096000
     18 C9           6.0380     0.9070    -1.2750 ca         1 LQY      -0.049500
     19 C10          5.7640    -0.0200    -2.2840 ca         1 LQY      -0.191600
     20 C11          4.7280    -0.9440    -2.1200 ca         1 LQY      -0.049500
     21 C12          3.9810    -0.9420    -0.9640 ca         1 LQY      -0.096000
     22 C13          6.5690    -0.0250    -3.5220 c          1 LQY       0.626700
     23 C14          7.0590    -0.8830    -5.7500 c3         1 LQY       0.006000
     24 C15          6.5720    -1.9810    -6.6610 c          1 LQY       0.304100
     25 C16          4.4620     0.0030     4.5680 ce         1 LQY       0.435900
     26 C17          7.8940    -0.5400     5.6650 c3         1 LQY       0.034700
     27 C18          8.7490     0.2670     4.6660 c3         1 LQY      -0.042400
     28 C19         10.1760     0.1170     4.9090 c3         1 LQY      -0.020900
     29 C20         10.6500    -1.3420     4.7470 c3         1 LQY      -0.032400
     30 C21         10.3080    -2.0980     6.0030 c3         1 LQY      -0.032400
     31 C22          8.9540    -2.8270     5.9020 c3         1 LQY      -0.020900
     32 C23          7.8670    -1.9770     5.2180 c3         1 LQY      -0.042400
     33 C24          6.0110     0.4790     6.8410 c          1 LQY       0.615500
     34 C25          4.5770     0.9350     6.8340 c3         1 LQY      -0.120700
     35 C26          3.9820     0.9670     8.2300 c3         1 LQY       0.036800
     36 C27          3.6600    -0.4140     8.7180 c2         1 LQY      -0.130200
     37 C28          3.6000    -1.4510     7.9470 c2         1 LQY      -0.171200
     38 C29          3.8600    -1.4240     6.4740 c3         1 LQY       0.026800
     39 C30          3.7720     0.0030     5.9200 c3         1 LQY      -0.168000
     40 H           -0.3610    -0.8850     0.5100 h1         1 LQY       0.002367
     41 HA          -0.3610     0.0010    -1.0210 h1         1 LQY       0.002367
     42 HB          -0.3610     0.8840     0.5110 h1         1 LQY       0.002367
     43 HN           5.5910    -1.6100    -4.3590 hn         1 LQY       0.215500
     44 HN1          6.8760    -1.3650    -8.4630 hn         1 LQY       0.250800
     45 HN1A         6.7910    -2.9880    -8.2900 hn         1 LQY       0.250800
     46 H2           0.2070    -0.0020     2.3130 ha         1 LQY       0.132000
     47 H3           1.3130    -0.0020     4.5090 ha         1 LQY       0.110000
     48 H5           5.1540    -0.0010     2.5840 ha         1 LQY       0.156000
     49 H8           5.4990     1.6300     0.6600 ha         1 LQY       0.123500
     50 H9           6.8410     1.6230    -1.4010 ha         1 LQY       0.108500
     51 H11          4.5160    -1.6650    -2.9000 ha         1 LQY       0.108500
     52 H12          3.1780    -1.6580    -0.8370 ha         1 LQY       0.123500
     53 H14          6.9130     0.0760    -6.2310 h1         1 LQY       0.062700
     54 H14A         8.1120    -1.0270    -5.5420 h1         1 LQY       0.062700
     55 H17          8.3330    -0.4760     6.6530 h1         1 LQY       0.084700
     56 H18          8.5280    -0.0740     3.6620 hc         1 LQY       0.021700
     57 H18A         8.4880     1.3150     4.7510 hc         1 LQY       0.021700
     58 H19         10.7170     0.7400     4.2070 hc         1 LQY       0.015700
     59 H19A        10.3950     0.4450     5.9180 hc         1 LQY       0.015700
     60 H20         11.7220    -1.3610     4.5920 hc         1 LQY       0.018450
     61 H20A        10.1460    -1.7960     3.9020 hc         1 LQY       0.018450
     62 H21         10.2670    -1.3990     6.8300 hc         1 LQY       0.018450
     63 H21A        11.0850    -2.8290     6.1920 hc         1 LQY       0.018450
     64 H22          9.0920    -3.7380     5.3330 hc         1 LQY       0.015700
     65 H22A         8.6210    -3.0800     6.9010 hc         1 LQY       0.015700
     66 H23          6.8960    -2.3970     5.4540 hc         1 LQY       0.021700
     67 H23A         8.0190    -2.0120     4.1460 hc         1 LQY       0.021700
     68 H25          4.5380     1.9370     6.4220 hc         1 LQY       0.046700
     69 H26          3.0730     1.5560     8.2130 hc         1 LQY       0.036200
     70 H26A         4.6930     1.4240     8.9070 hc         1 LQY       0.036200
     71 H27          3.4680    -0.5500     9.7750 ha         1 LQY       0.104000
     72 H28          3.3440    -2.4020     8.3990 ha         1 LQY       0.102000
     73 H29          4.8520    -1.8170     6.2830 hc         1 LQY       0.024700
     74 H29A         3.1250    -2.0440     5.9740 hc         1 LQY       0.024700
     75 H30          2.7420     0.3290     5.8350 hc         1 LQY       0.063700
     76 H13          8.1220    -2.1810    -7.7900 hn         1 LQY       0.250800
@<TRIPOS>BOND
     1     1     3 1   
     2     1    40 1   
     3     1    41 1   
     4     1    42 1   
     5     2    22 1   
     6     2    23 1   
     7     2    43 1   
     8     3     4 1   
     9     4     7 ar  
    10     4    15 ar  
    11     5    24 1   
    12     5    44 1   
    13     5    45 1   
    14     5    76 1   
    15     6    22 2   
    16     7    10 ar  
    17     7    46 1   
    18     8    11 1   
    19     8    25 2   
    20     9    24 2   
    21    10    13 ar  
    22    10    47 1   
    23    11    26 1   
    24    11    33 1   
    25    12    33 2   
    26    13    14 ar  
    27    13    25 1   
    28    14    15 ar  
    29    14    48 1   
    30    15    16 1   
    31    16    17 ar  
    32    16    21 ar  
    33    17    18 ar  
    34    17    49 1   
    35    18    19 ar  
    36    18    50 1   
    37    19    20 ar  
    38    19    22 1   
    39    20    21 ar  
    40    20    51 1   
    41    21    52 1   
    42    23    24 1   
    43    23    53 1   
    44    23    54 1   
    45    25    39 1   
    46    26    27 1   
    47    26    32 1   
    48    26    55 1   
    49    27    28 1   
    50    27    56 1   
    51    27    57 1   
    52    28    29 1   
    53    28    58 1   
    54    28    59 1   
    55    29    30 1   
    56    29    60 1   
    57    29    61 1   
    58    30    31 1   
    59    30    62 1   
    60    30    63 1   
    61    31    32 1   
    62    31    64 1   
    63    31    65 1   
    64    32    66 1   
    65    32    67 1   
    66    33    34 1   
    67    34    35 1   
    68    34    39 1   
    69    34    68 1   
    70    35    36 1   
    71    35    69 1   
    72    35    70 1   
    73    36    37 2   
    74    36    71 1   
    75    37    38 1   
    76    37    72 1   
    77    38    39 1   
    78    38    73 1   
    79    38    74 1   
    80    39    75 1   
@<TRIPOS>SUBSTRUCTURE
     1 LQY         1 TEMP              0 ****  ****    0 ROOT
