@<TRIPOS>MOLECULE
LQZ
   39    39     1     0     0
SMALL
bcc


@<TRIPOS>ATOM
      1 C            0.0000     0.0000     0.0000 c          1 LQZ       0.551100
      2 N            0.2010    -0.0010     2.4220 n3         1 LQZ      -0.507600
      3 O            1.2130     0.0000     0.0000 o          1 LQZ      -0.613100
      4 CA          -0.7540     0.0000     1.3050 c3         1 LQZ       0.078800
      5 CAA          2.1910     1.0750     3.3590 c3         1 LQZ       0.001900
      6 CAB         -0.8480    -1.7210     3.8140 c3         1 LQZ       0.001900
      7 CAF          1.3960     0.3710    -4.7650 ca         1 LQZ      -0.092000
      8 CAG          1.7410    -0.6230    -3.8680 ca         1 LQZ      -0.102500
      9 CAH          0.3650     1.2460    -4.4700 ca         1 LQZ      -0.102500
     10 CAI          0.9650     1.2530     2.4610 c3         1 LQZ       0.134800
     11 CAJ         -0.4840    -0.2390     3.6990 c3         1 LQZ       0.134800
     12 NAL         -0.6740     0.0060    -1.1680 ns         1 LQZ      -0.048100
     13 CAN          1.0570    -0.7460    -2.6750 ca         1 LQZ      -0.072800
     14 CAO         -0.3230     1.1270    -3.2780 ca         1 LQZ      -0.072800
     15 CAP          0.0220     0.1290    -2.3760 ca         1 LQZ      -0.100400
     16 HA          -1.3760     0.8850     1.3630 h1         1 LQZ       0.022200
     17 HAA         -1.3770    -0.8840     1.3620 h1         1 LQZ       0.022200
     18 HAAA         2.5450     0.0530     3.2890 hc         1 LQZ       0.005867
     19 HAAB         1.9220     1.2940     4.3850 hc         1 LQZ       0.005867
     20 HAAC         2.9750     1.7510     3.0390 hc         1 LQZ       0.005867
     21 HAB         -0.8620    -2.0100     4.8580 hc         1 LQZ       0.005867
     22 HABA        -0.1120    -2.3150     3.2850 hc         1 LQZ       0.005867
     23 HABB        -1.8260    -1.8880     3.3800 hc         1 LQZ       0.005867
     24 HAC          1.8410    -2.6770    -2.2390 hc         1 LQZ       0.014200
     25 HACA         2.1780    -1.4520    -1.0080 hc         1 LQZ       0.014200
     26 HACB         0.5550    -2.1430    -1.1480 hc         1 LQZ       0.014200
     27 HAD         -1.5920     2.7580    -3.7890 hc         1 LQZ       0.014200
     28 HADA        -2.3560     1.5180    -2.7850 hc         1 LQZ       0.014200
     29 HADB        -1.1960     2.6450    -2.0680 hc         1 LQZ       0.014200
     30 HAF          1.9340     0.4670    -5.7010 ha         1 LQZ       0.101000
     31 HAG          2.5490    -1.3060    -4.1020 ha         1 LQZ       0.107000
     32 HAH          0.0960     2.0240    -5.1740 ha         1 LQZ       0.107000
     33 HAI          1.2860     1.5120     1.4590 h1         1 LQZ       0.015200
     34 HAIA         0.3400     2.0450     2.8550 h1         1 LQZ       0.015200
     35 HAJ          0.1710     0.0360     4.5170 h1         1 LQZ       0.015200
     36 HAJA        -1.3870     0.3580     3.7430 h1         1 LQZ       0.015200
     37 HNAL        -1.6660    -0.1190    -1.1730 hn         1 LQZ       0.166500
     38 CAC          1.4340    -1.8310    -1.6990 c3         1 LQZ       0.051200
     39 CAD         -1.4460     2.0790    -2.9570 c3         1 LQZ       0.051200
@<TRIPOS>BOND
     1     1     3 2   
     2     1     4 1   
     3     1    12 1   
     4     2     4 1   
     5     2    10 1   
     6     2    11 1   
     7     4    16 1   
     8     4    17 1   
     9     5    10 1   
    10     5    18 1   
    11     5    19 1   
    12     5    20 1   
    13     6    11 1   
    14     6    21 1   
    15     6    22 1   
    16     6    23 1   
    17     7     8 ar  
    18     7     9 ar  
    19     7    30 1   
    20     8    13 ar  
    21     8    31 1   
    22     9    14 ar  
    23     9    32 1   
    24    10    33 1   
    25    10    34 1   
    26    11    35 1   
    27    11    36 1   
    28    12    15 1   
    29    12    37 1   
    30    13    15 ar  
    31    13    38 1   
    32    14    15 ar  
    33    14    39 1   
    34    24    38 1   
    35    25    38 1   
    36    26    38 1   
    37    27    39 1   
    38    28    39 1   
    39    29    39 1   
@<TRIPOS>SUBSTRUCTURE
     1 LQZ         1 TEMP              0 ****  ****    0 ROOT
