@<TRIPOS>MOLECULE
molecule
   39    39     1     0     0
SMALL
bcc


@<TRIPOS>ATOM
      1 C            0.0000     0.0000     0.0000 c          1 LQZ       0.652100
      2 N            0.2010    -0.0010     2.4220 n3         1 LQZ      -0.707600
      3 O            1.2130     0.0000     0.0000 o          1 LQZ      -0.573100
      4 CA          -0.7540     0.0000     1.3050 c3         1 LQZ       0.087800
      5 CAA          2.1910     1.0750     3.3590 c3         1 LQZ      -0.091100
      6 CAB         -0.8480    -1.7210     3.8140 c3         1 LQZ      -0.091100
      7 CAF          1.3960     0.3710    -4.7650 ca         1 LQZ      -0.126000
      8 CAG          1.7410    -0.6230    -3.8680 ca         1 LQZ      -0.126000
      9 CAH          0.3650     1.2460    -4.4700 ca         1 LQZ      -0.126000
     10 CAI          0.9650     1.2530     2.4610 c3         1 LQZ       0.154800
     11 CAJ         -0.4840    -0.2390     3.6990 c3         1 LQZ       0.154800
     12 NAL         -0.6740     0.0060    -1.1680 ns         1 LQZ      -0.488100
     13 CAN          1.0570    -0.7460    -2.6750 ca         1 LQZ      -0.075800
     14 CAO         -0.3230     1.1270    -3.2780 ca         1 LQZ      -0.075800
     15 CAP          0.0220     0.1290    -2.3760 ca         1 LQZ       0.043600
     16 HA          -1.3760     0.8850     1.3630 h1         1 LQZ       0.050700
     17 HAA         -1.3770    -0.8840     1.3620 h1         1 LQZ       0.050700
     18 HAAA         2.5450     0.0530     3.2890 hc         1 LQZ       0.038867
     19 HAAB         1.9220     1.2940     4.3850 hc         1 LQZ       0.038867
     20 HAAC         2.9750     1.7510     3.0390 hc         1 LQZ       0.038867
     21 HAB         -0.8620    -2.0100     4.8580 hc         1 LQZ       0.038867
     22 HABA        -0.1120    -2.3150     3.2850 hc         1 LQZ       0.038867
     23 HABB        -1.8260    -1.8880     3.3800 hc         1 LQZ       0.038867
     24 HAC          1.8410    -2.6770    -2.2390 hc         1 LQZ       0.046200
     25 HACA         2.1780    -1.4520    -1.0080 hc         1 LQZ       0.046200
     26 HACB         0.5550    -2.1430    -1.1480 hc         1 LQZ       0.046200
     27 HAD         -1.5920     2.7580    -3.7890 hc         1 LQZ       0.046200
     28 HADA        -2.3560     1.5180    -2.7850 hc         1 LQZ       0.046200
     29 HADB        -1.1960     2.6450    -2.0680 hc         1 LQZ       0.046200
     30 HAF          1.9340     0.4670    -5.7010 ha         1 LQZ       0.129000
     31 HAG          2.5490    -1.3060    -4.1020 ha         1 LQZ       0.132500
     32 HAH          0.0960     2.0240    -5.1740 ha         1 LQZ       0.132500
     33 HAI          1.2860     1.5120     1.4590 h1         1 LQZ       0.038450
     34 HAIA         0.3400     2.0450     2.8550 h1         1 LQZ       0.038450
     35 HAJ          0.1710     0.0360     4.5170 h1         1 LQZ       0.038450
     36 HAJA        -1.3870     0.3580     3.7430 h1         1 LQZ       0.038450
     37 HNAL        -1.6660    -0.1190    -1.1730 hn         1 LQZ       0.319500
     38 CAC          1.4340    -1.8310    -1.6990 c3         1 LQZ      -0.045800
     39 CAD         -1.4460     2.0790    -2.9570 c3         1 LQZ      -0.045800
@<TRIPOS>BOND
     1     1     3 2
     2     1     4 1
     3     1    12 1
     4     2     4 1
     5     2    10 1
     6     2    11 1
     7     5    10 1
     8     6    11 1
     9    38    13 1
    10    39    14 1
    11     7     8 ar
    12     7     9 ar
    13     8    13 ar
    14     9    14 ar
    15    12    15 1
    16    13    15 ar
    17    14    15 ar
    18     4    16 1
    19     4    17 1
    20     5    18 1
    21     5    19 1
    22     5    20 1
    23     6    21 1
    24     6    22 1
    25     6    23 1
    26    38    24 1
    27    38    25 1
    28    38    26 1
    29    39    27 1
    30    39    28 1
    31    39    29 1
    32     7    30 1
    33     8    31 1
    34     9    32 1
    35    10    33 1
    36    10    34 1
    37    11    35 1
    38    11    36 1
    39    12    37 1
@<TRIPOS>SUBSTRUCTURE
     1 LQZ         1 TEMP              0 ****  ****    0 ROOT
