@<TRIPOS>MOLECULE
molecule
   37    38     1     0     0
SMALL
bcc


@<TRIPOS>ATOM
      1 CAH          0.0000     0.0000     0.0000 ca         1 LR1      -0.116000
      2 CAF          1.3820     0.0000     0.0000 ca         1 LR1      -0.103500
      3 CAM          2.0740     0.0000     1.1980 ca         1 LR1      -0.017900
      4 Br           3.9640     0.0010     1.2000 br         1 LR1      -0.096100
      5 CAG          1.3810     0.0010     2.3950 ca         1 LR1      -0.103500
      6 CAI         -0.0010     0.0000     2.3950 ca         1 LR1      -0.116000
      7 CAN         -0.6920    -0.0000     1.1970 ca         1 LR1      -0.076300
      8 CAK         -2.1990     0.0010     1.1960 c3         1 LR1       0.200100
      9 NAL         -2.6890    -1.3850     1.1960 n7         1 LR1      -0.825200
     10 CAS         -4.1570    -1.4230     1.1950 c3         1 LR1       0.167500
     11 CAQ         -4.6870    -1.3480    -0.2520 c3         1 LR1       0.137100
     12 OAD         -5.0780    -0.0110    -0.5730 oh         1 LR1      -0.609800
     13 CAO         -5.9180    -2.2880    -0.2560 c3         1 LR1       0.086100
     14 OAB         -6.1910    -2.7590    -1.5770 oh         1 LR1      -0.607800
     15 CAP         -5.4610    -3.4520     0.6590 c3         1 LR1       0.149100
     16 OAC         -6.5930    -4.1280     1.2100 oh         1 LR1      -0.595800
     17 CAR         -4.6500    -2.7610     1.7740 c3         1 LR1      -0.077700
     18 CAJ         -3.4560    -3.6320     2.1700 c3         1 LR1       0.143400
     19 OAA         -3.9240    -4.8200     2.8110 oh         1 LR1      -0.604800
     20 HAH         -0.5410    -0.0000    -0.9380 ha         1 LR1       0.137500
     21 HAF          1.9240     0.0000    -0.9380 ha         1 LR1       0.144500
     22 HAG          1.9220     0.0010     3.3340 ha         1 LR1       0.144500
     23 HAI         -0.5430     0.0000     3.3330 ha         1 LR1       0.137500
     24 HAK1        -2.5590     0.5120     0.3110 h1         1 LR1       0.048200
     25 HAK2        -2.5600     0.5120     2.0800 h1         1 LR1       0.048200
     26 HAL         -2.3430    -1.8610     2.0050 hn         1 LR1       0.364800
     27 HAS         -4.5550    -0.6000     1.7770 h1         1 LR1       0.056700
     28 HAQ         -3.9370    -1.7070    -0.9460 h1         1 LR1       0.073700
     29 HAR         -5.2840    -2.5790     2.6330 hc         1 LR1       0.088700
     30 HAD         -5.0200     0.1190    -1.5050 ho         1 LR1       0.410000
     31 HAO         -6.7810    -1.7880     0.1670 h1         1 LR1       0.069700
     32 HAB         -7.0820    -2.5510    -1.8070 ho         1 LR1       0.408000
     33 HAP         -4.8330    -4.1410     0.1070 h1         1 LR1       0.061700
     34 HAC         -6.7540    -4.9200     0.7230 ho         1 LR1       0.409000
     35 HAJ1        -2.8180    -3.0820     2.8500 h1         1 LR1       0.029700
     36 HAJ2        -2.8930    -3.8980     1.2830 h1         1 LR1       0.029700
     37 HAA         -3.2030    -5.2490     3.2420 ho         1 LR1       0.403000
@<TRIPOS>BOND
     1     1     2 ar
     2     1     7 ar
     3     2     3 ar
     4     3     4 1
     5     3     5 ar
     6     5     6 ar
     7     6     7 ar
     8     7     8 1
     9     8     9 1
    10     9    10 1
    11    10    11 1
    12    10    17 1
    13    11    12 1
    14    11    13 1
    15    13    14 1
    16    13    15 1
    17    15    16 1
    18    15    17 1
    19    17    18 1
    20    18    19 1
    21     1    20 1
    22     2    21 1
    23     5    22 1
    24     6    23 1
    25     8    24 1
    26     8    25 1
    27     9    26 1
    28    10    27 1
    29    11    28 1
    30    17    29 1
    31    12    30 1
    32    13    31 1
    33    14    32 1
    34    15    33 1
    35    16    34 1
    36    18    35 1
    37    18    36 1
    38    19    37 1
@<TRIPOS>SUBSTRUCTURE
     1 LR1         1 TEMP              0 ****  ****    0 ROOT
