@<TRIPOS>MOLECULE
LR1
   37    38     1     0     0
SMALL
bcc


@<TRIPOS>ATOM
      1 CAH          0.0000     0.0000     0.0000 ca         1 LR1      -0.084000
      2 CAF          1.3820     0.0000     0.0000 ca         1 LR1      -0.083500
      3 CAM          2.0740     0.0000     1.1980 ca         1 LR1       0.036100
      4 Br           3.9640     0.0010     1.2000 br         1 LR1      -0.132100
      5 CAG          1.3810     0.0010     2.3950 ca         1 LR1      -0.083500
      6 CAI         -0.0010     0.0000     2.3950 ca         1 LR1      -0.084000
      7 CAN         -0.6920    -0.0000     1.1970 ca         1 LR1      -0.089300
      8 CAK         -2.1990     0.0010     1.1960 c3         1 LR1       0.199100
      9 NAL         -2.6890    -1.3850     1.1960 n7         1 LR1      -0.609200
     10 CAS         -4.1570    -1.4230     1.1950 c3         1 LR1       0.121500
     11 CAQ         -4.6870    -1.3480    -0.2520 c3         1 LR1       0.172100
     12 OAD         -5.0780    -0.0110    -0.5730 oh         1 LR1      -0.590800
     13 CAO         -5.9180    -2.2880    -0.2560 c3         1 LR1       0.123100
     14 OAB         -6.1910    -2.7590    -1.5770 oh         1 LR1      -0.586800
     15 CAP         -5.4610    -3.4520     0.6590 c3         1 LR1       0.186100
     16 OAC         -6.5930    -4.1280     1.2100 oh         1 LR1      -0.577800
     17 CAR         -4.6500    -2.7610     1.7740 c3         1 LR1      -0.071700
     18 CAJ         -3.4560    -3.6320     2.1700 c3         1 LR1       0.217400
     19 OAA         -3.9240    -4.8200     2.8110 oh         1 LR1      -0.584800
     20 HAH         -0.5410    -0.0000    -0.9380 ha         1 LR1       0.110000
     21 HAF          1.9240     0.0000    -0.9380 ha         1 LR1       0.116500
     22 HAG          1.9220     0.0010     3.3340 ha         1 LR1       0.116500
     23 HAI         -0.5430     0.0000     3.3330 ha         1 LR1       0.110000
     24 HAK1        -2.5590     0.5120     0.3110 h1         1 LR1       0.018200
     25 HAK2        -2.5600     0.5120     2.0800 h1         1 LR1       0.018200
     26 HAL         -2.3430    -1.8610     2.0050 hn         1 LR1       0.276800
     27 HAS         -4.5550    -0.6000     1.7770 h1         1 LR1       0.033700
     28 HAQ         -3.9370    -1.7070    -0.9460 h1         1 LR1       0.036700
     29 HAR         -5.2840    -2.5790     2.6330 hc         1 LR1       0.057700
     30 HAD         -5.0200     0.1190    -1.5050 ho         1 LR1       0.396000
     31 HAO         -6.7810    -1.7880     0.1670 h1         1 LR1       0.034700
     32 HAB         -7.0820    -2.5510    -1.8070 ho         1 LR1       0.394000
     33 HAP         -4.8330    -4.1410     0.1070 h1         1 LR1       0.027700
     34 HAC         -6.7540    -4.9200     0.7230 ho         1 LR1       0.394000
     35 HAJ1        -2.8180    -3.0820     2.8500 h1         1 LR1      -0.002300
     36 HAJ2        -2.8930    -3.8980     1.2830 h1         1 LR1      -0.002300
     37 HAA         -3.2030    -5.2490     3.2420 ho         1 LR1       0.388000
@<TRIPOS>BOND
     1     1     2 ar  
     2     1     7 ar  
     3     1    20 1   
     4     2     3 ar  
     5     2    21 1   
     6     3     4 1   
     7     3     5 ar  
     8     5     6 ar  
     9     5    22 1   
    10     6     7 ar  
    11     6    23 1   
    12     7     8 1   
    13     8     9 1   
    14     8    24 1   
    15     8    25 1   
    16     9    10 1   
    17     9    26 1   
    18    10    11 1   
    19    10    17 1   
    20    10    27 1   
    21    11    12 1   
    22    11    13 1   
    23    11    28 1   
    24    12    30 1   
    25    13    14 1   
    26    13    15 1   
    27    13    31 1   
    28    14    32 1   
    29    15    16 1   
    30    15    17 1   
    31    15    33 1   
    32    16    34 1   
    33    17    18 1   
    34    17    29 1   
    35    18    19 1   
    36    18    35 1   
    37    18    36 1   
    38    19    37 1   
@<TRIPOS>SUBSTRUCTURE
     1 LR1         1 TEMP              0 ****  ****    0 ROOT
