@<TRIPOS>MOLECULE
molecule
   38    40     1     0     0
SMALL
bcc


@<TRIPOS>ATOM
      1 OBL          0.0000     0.0000     0.0000 o          1 LRD      -0.701533
      2 SBA          1.5220     0.0000     0.0000 s6         1 LRD       1.317100
      3 OBJ          1.9230     0.0000     1.3630 o          1 LRD      -0.701533
      4 OBK          1.9220    -0.9980    -0.9290 o          1 LRD      -0.701533
      5 CAW          2.0430     1.5430    -0.6730 ca         1 LRD      -0.227500
      6 CAV          1.2650     2.6670    -0.5080 ca         1 LRD      -0.031000
      7 CAU          1.6740     3.8820    -1.0310 ca         1 LRD      -0.152000
      8 CAZ          2.8690     3.9770    -1.7240 ca         1 LRD      -0.118000
      9 CAY          3.6610     2.8630    -1.8990 ca         1 LRD      -0.140000
     10 CAX          3.2540     1.6310    -1.3730 ca         1 LRD      -0.017800
     11 CAS          4.0940     0.4360    -1.5490 ce         1 LRD       0.139600
     12 CBE          4.8510    -0.0600    -0.4660 cd         1 LRD      -0.106000
     13 CBF          5.6570    -1.2050    -0.6340 cd         1 LRD      -0.042000
     14 CBG          6.3860    -1.6820     0.4090 cc         1 LRD      -0.096800
     15 ClB          7.3780    -3.0900     0.2020 cl         1 LRD      -0.115400
     16 CBB          6.3340    -1.0330     1.6590 c          1 LRD       0.572500
     17 OBH          6.9910    -1.4630     2.5990 o          1 LRD      -0.565100
     18 CBC          5.5290     0.1100     1.8280 cc         1 LRD      -0.246200
     19 CBD          4.8050     0.5910     0.7840 cd         1 LRD      -0.032000
     20 CAM          4.1460    -0.2370    -2.8510 ca         1 LRD      -0.067800
     21 CAN          4.6930     0.4190    -3.9630 ca         1 LRD      -0.098000
     22 CAO          4.7390    -0.2130    -5.1730 ca         1 LRD      -0.008600
     23 ClA          5.4160     0.5980    -6.5510 cl         1 LRD      -0.121400
     24 CAR          3.6550    -1.5450    -2.9880 ca         1 LRD      -0.042000
     25 CAQ          3.7060    -2.1670    -4.2010 ca         1 LRD      -0.162000
     26 CAP          4.2450    -1.5100    -5.3020 ca         1 LRD       0.109100
     27 O1           4.2930    -2.1350    -6.5060 oh         1 LRD      -0.521100
     28 H1           0.3280     2.6010     0.0330 ha         1 LRD       0.159000
     29 H2           1.0570     4.7620    -0.8970 ha         1 LRD       0.118000
     30 H3           3.1830     4.9310    -2.1300 ha         1 LRD       0.115000
     31 H4           4.5950     2.9400    -2.4410 ha         1 LRD       0.119000
     32 H6           5.7320    -1.6760    -1.6060 ha         1 LRD       0.146000
     33 H8           5.5190     0.6290     2.7790 ha         1 LRD       0.153000
     34 H9           4.2290     1.5000     0.8990 ha         1 LRD       0.154000
     35 H10          5.1390     1.4000    -3.8470 ha         1 LRD       0.143000
     36 H11          3.2340    -2.0590    -2.1310 ha         1 LRD       0.210000
     37 H12          3.3250    -3.1760    -4.3070 ha         1 LRD       0.146000
     38 H13          3.4680    -2.0270    -6.9490 ho         1 LRD       0.419000
@<TRIPOS>BOND
     1     7     8 ar
     2     7     6 ar
     3     8     9 ar
     4     6     5 ar
     5     9    10 ar
     6     5    10 ar
     7     5     2 1
     8    10    11 1
     9     4     2 1
    10    23    22 1
    11     2     3 1
    12     2     1 1
    13    21    22 ar
    14    21    20 ar
    15    11    20 1
    16    11    12 2
    17    22    26 ar
    18    20    24 ar
    19    19    12 1
    20    19    18 2
    21    26    27 1
    22    26    25 ar
    23    12    13 1
    24    24    25 ar
    25    18    16 1
    26    13    14 2
    27    16    14 1
    28    16    17 2
    29    14    15 1
    30     6    28 1
    31     7    29 1
    32     8    30 1
    33     9    31 1
    34    13    32 1
    35    18    33 1
    36    19    34 1
    37    21    35 1
    38    24    36 1
    39    25    37 1
    40    27    38 1
@<TRIPOS>SUBSTRUCTURE
     1 LRD         1 TEMP              0 ****  ****    0 ROOT
