@<TRIPOS>MOLECULE
LRD
   38    40     1     0     0
SMALL
bcc


@<TRIPOS>ATOM
      1 OBL        -0.1990    0.3720    0.4510 o         1 LRD     -0.740200
      2 SBA         1.1470    0.0070    0.2430 s6        1 LRD      1.464100
      3 OBJ         1.9120   -0.0690    1.4240 o         1 LRD     -0.740200
      4 OBK         1.3070   -1.0910   -0.6300 o         1 LRD     -0.740200
      5 CAW         1.8650    1.4100   -0.6300 ca        1 LRD     -0.225500
      6 CAV         1.0920    2.5780   -0.6150 ca        1 LRD     -0.067000
      7 CAU         1.5250    3.7550   -1.2170 ca        1 LRD     -0.155000
      8 CAZ         2.7610    3.7830   -1.8620 ca        1 LRD     -0.124000
      9 CAY         3.5400    2.6330   -1.9000 ca        1 LRD     -0.149000
     10 CAX         3.1000    1.4460   -1.2830 ca        1 LRD      0.002200
     11 CAS         4.0100    0.2930   -1.4150 ce        1 LRD      0.110600
     12 CBE         4.8370   -0.1330   -0.4230 cd        1 LRD     -0.082000
     13 CBF         5.8280   -1.1740   -0.6560 cd        1 LRD     -0.054000
     14 CBG         6.8100   -1.4320    0.2340 cc        1 LRD     -0.101800
     15 CLB         7.9610   -2.6440   -0.1000 cl        1 LRD     -0.111400
     16 CBB         6.9210   -0.6970    1.5150 c         1 LRD      0.577500
     17 OBH         7.8910   -0.8060    2.2790 o         1 LRD     -0.554100
     18 CBC         5.7780    0.1730    1.8150 cc        1 LRD     -0.273200
     19 CBD         4.8040    0.4270    0.9220 cd        1 LRD     -0.014000
     20 CAM         4.0480   -0.3050   -2.7620 ca        1 LRD     -0.097800
     21 CAN         5.0670    0.0420   -3.6530 ca        1 LRD     -0.082000
     22 CAO         5.0910   -0.5090   -4.9370 ca        1 LRD     -0.082600
     23 CLA         6.3460   -0.0670   -6.0090 cl        1 LRD     -0.122400
     24 CAR         3.0470   -1.2070   -3.1570 ca        1 LRD     -0.057000
     25 CAQ         3.0680   -1.7600   -4.4310 ca        1 LRD     -0.161000
     26 CAP         4.0910   -1.4130   -5.3310 ca        1 LRD      0.129100
     27 O1          4.0340   -2.0060   -6.5710 oh        1 LRD     -0.499100
     28 H1          0.1070    2.5490   -0.1120 ha        1 LRD      0.165000
     29 H2          0.8980    4.6570   -1.1870 ha        1 LRD      0.117000
     30 H3          3.1170    4.7050   -2.3420 ha        1 LRD      0.113000
     31 H4          4.5100    2.6450   -2.4200 ha        1 LRD      0.118000
     32 H6          5.7480   -1.7360   -1.6030 ha        1 LRD      0.149000
     33 H8          5.7500    0.5920    2.8320 ha        1 LRD      0.150000
     34 H9          3.9150    1.0310    1.1900 ha        1 LRD      0.187000
     35 H10         5.8510    0.7510   -3.3450 ha        1 LRD      0.146000
     36 H11         2.2400   -1.4750   -2.4390 ha        1 LRD      0.229000
     37 H12         2.2910   -2.4690   -4.7510 ha        1 LRD      0.154000
     38 H13         4.7850   -1.6840   -7.0930 ho        1 LRD      0.421000
@<TRIPOS>BOND
     1    1    2 1   
     2    2    3 1   
     3    2    4 1   
     4    2    5 1   
     5    5    6 ar  
     6    5   10 ar  
     7    6    7 ar  
     8    6   28 1   
     9    7    8 ar  
    10    7   29 1   
    11    8    9 ar  
    12    8   30 1   
    13    9   10 ar  
    14    9   31 1   
    15   10   11 1   
    16   11   12 2   
    17   11   20 1   
    18   12   13 1   
    19   12   19 1   
    20   13   14 2   
    21   13   32 1   
    22   14   15 1   
    23   14   16 1   
    24   16   17 2   
    25   16   18 1   
    26   18   19 2   
    27   18   33 1   
    28   19   34 1   
    29   20   21 ar  
    30   20   24 ar  
    31   21   22 ar  
    32   21   35 1   
    33   22   23 1   
    34   22   26 ar  
    35   24   25 ar  
    36   24   36 1   
    37   25   26 ar  
    38   25   37 1   
    39   26   27 1   
    40   27   38 1   
@<TRIPOS>SUBSTRUCTURE
     1 LRD         1 TEMP              0 ****  ****    0 ROOT
