@<TRIPOS>MOLECULE
molecule
   41    43     1     0     0
SMALL
bcc


@<TRIPOS>ATOM
      1 CAI          0.0000     0.0000     0.0000 ca         1 LRG      -0.121500
      2 CAE          1.3810     0.0000     0.0000 ca         1 LRG      -0.137500
      3 CAC          2.0720     0.0000     1.1970 ca         1 LRG      -0.150000
      4 CAF          1.3810    -0.0010     2.3950 ca         1 LRG      -0.137500
      5 CAJ         -0.0010    -0.0010     2.3940 ca         1 LRG      -0.121500
      6 CAT         -0.6920    -0.0010     1.1960 ca         1 LRG      -0.065300
      7 CAQ         -2.1990     0.0060     1.1960 c3         1 LRG      -0.020100
      8 CAX         -2.7150    -1.4350     1.1920 c3         1 LRG       0.031100
      9 CAS         -4.2170    -1.4310     1.3150 c          1 LRG       0.867600
     10 OAB         -4.7970    -0.9720     2.4350 o          1 LRG      -0.824800
     11 OAA         -4.8980    -1.8410     0.4060 o          1 LRG      -0.824800
     12 OAR         -2.3380    -2.0720    -0.0310 os         1 LRG      -0.310900
     13 CAU         -2.2470    -3.4270    -0.0170 ca         1 LRG       0.206100
     14 CAN         -1.7790    -4.1010    -1.1370 ca         1 LRG      -0.195500
     15 CAP         -1.6850    -5.4770    -1.1260 ca         1 LRG      -0.079500
     16 CAM         -2.6150    -4.1350     1.1190 ca         1 LRG      -0.195500
     17 CAO         -2.5230    -5.5110     1.1350 ca         1 LRG      -0.079500
     18 CAW         -2.0590    -6.1910     0.0100 cp         1 LRG      -0.123000
     19 CAV         -1.9600    -7.6710     0.0250 cp         1 LRG       0.009000
     20 CAK         -2.3350    -8.3870     1.1600 ca         1 LRG      -0.135000
     21 CAG         -2.2450    -9.7630     1.1670 ca         1 LRG      -0.128000
     22 CAD         -1.7840   -10.4330     0.0480 ca         1 LRG      -0.154000
     23 CAH         -1.4100    -9.7290    -1.0820 ca         1 LRG      -0.128000
     24 CAL         -1.4960    -8.3520    -1.0990 ca         1 LRG      -0.135000
     25 HAI         -0.5410     0.0000    -0.9380 ha         1 LRG       0.136500
     26 HAE          1.9230     0.0010    -0.9380 ha         1 LRG       0.115000
     27 HAC          3.1560    -0.0000     1.1980 ha         1 LRG       0.112000
     28 HAF          1.9220    -0.0010     3.3330 ha         1 LRG       0.115000
     29 HAJ         -0.5430    -0.0010     3.3320 ha         1 LRG       0.136500
     30 HAQ         -2.5580     0.5210     0.3140 hc         1 LRG       0.071200
     31 HAQA        -2.5580     0.5150     2.0830 hc         1 LRG       0.071200
     32 HAX         -2.2860    -1.9740     2.0270 h1         1 LRG       0.043700
     33 HAN         -1.4880    -3.5460    -2.0210 ha         1 LRG       0.148500
     34 HAP         -1.3220    -6.0020    -2.0010 ha         1 LRG       0.120000
     35 HAM         -2.9760    -3.6070     1.9930 ha         1 LRG       0.148500
     36 HAO         -2.8130    -6.0640     2.0210 ha         1 LRG       0.120000
     37 HAK         -2.6960    -7.8630     2.0370 ha         1 LRG       0.133500
     38 HAG         -2.5360   -10.3200     2.0490 ha         1 LRG       0.118000
     39 HAD         -1.7150   -11.5140     0.0570 ha         1 LRG       0.115000
     40 HAH         -1.0500   -10.2590    -1.9550 ha         1 LRG       0.118000
     41 HAL         -1.2030    -7.8020    -1.9850 ha         1 LRG       0.133500
@<TRIPOS>BOND
     1     3     4 ar
     2     3     2 ar
     3     4     5 ar
     4     2     1 ar
     5     5     6 ar
     6     1     6 ar
     7     6     7 1
     8    21    22 ar
     9    21    20 ar
    10    22    23 ar
    11    17    16 ar
    12    17    18 ar
    13    20    19 ar
    14    16    13 ar
    15    23    24 ar
    16    19    24 ar
    17    19    18 1
    18    12    13 1
    19    12     8 1
    20    18    15 ar
    21    13    14 ar
    22    15    14 ar
    23     7     8 1
    24     8     9 1
    25     9    11 1
    26     9    10 1
    27     1    25 1
    28     2    26 1
    29     3    27 1
    30     4    28 1
    31     5    29 1
    32     7    30 1
    33     7    31 1
    34     8    32 1
    35    14    33 1
    36    15    34 1
    37    16    35 1
    38    17    36 1
    39    20    37 1
    40    21    38 1
    41    22    39 1
    42    23    40 1
    43    24    41 1
@<TRIPOS>SUBSTRUCTURE
     1 LRG         1 TEMP              0 ****  ****    0 ROOT
