@<TRIPOS>MOLECULE
LRG
   41    43     1     0     0
SMALL
bcc


@<TRIPOS>ATOM
      1 CAI         0.3930    0.3180    0.1170 ca        1 LRG     -0.131500
      2 CAE         1.7330    0.4680    0.4700 ca        1 LRG     -0.137500
      3 CAC         2.1200    0.3880    1.8060 ca        1 LRG     -0.154000
      4 CAF         1.1590    0.1540    2.7910 ca        1 LRG     -0.137500
      5 CAJ        -0.1810    0.0040    2.4410 ca        1 LRG     -0.131500
      6 CAT        -0.5780    0.0850    1.0980 ca        1 LRG     -0.050300
      7 CAQ        -2.0130   -0.0520    0.7320 c3        1 LRG     -0.044100
      8 CAX        -2.5920   -1.4270    1.0550 c3        1 LRG      0.015100
      9 CAS        -4.0880   -1.3030    1.4850 c         1 LRG      0.905600
     10 OAB        -4.8130   -0.4560    0.9060 o         1 LRG     -0.820300
     11 OAA        -4.4520   -2.0450    2.4410 o         1 LRG     -0.820300
     12 OAR        -2.4520   -2.1840   -0.1710 os        1 LRG     -0.324900
     13 CAU        -2.3860   -3.5460   -0.0600 ca        1 LRG      0.172100
     14 CAN        -1.8390   -4.2130   -1.1770 ca        1 LRG     -0.194500
     15 CAP        -1.7460   -5.5970   -1.1730 ca        1 LRG     -0.089500
     16 CAM        -2.8430   -4.2860    1.0440 ca        1 LRG     -0.194500
     17 CAO        -2.7320   -5.6700    1.0310 ca        1 LRG     -0.089500
     18 CAW        -2.1800   -6.3460   -0.0690 cp        1 LRG     -0.123000
     19 CAV        -2.0630   -7.8000   -0.0670 cp        1 LRG      0.009000
     20 CAK        -1.7260   -8.4870    1.1100 ca        1 LRG     -0.132000
     21 CAG        -1.6130   -9.8750    1.1110 ca        1 LRG     -0.133500
     22 CAD        -1.8330  -10.6000   -0.0600 ca        1 LRG     -0.152000
     23 CAH        -2.1700   -9.9270   -1.2340 ca        1 LRG     -0.133500
     24 CAL        -2.2850   -8.5390   -1.2390 ca        1 LRG     -0.132000
     25 HAI         0.0930    0.3740   -0.9400 ha        1 LRG      0.137500
     26 HAE         2.4870    0.6470   -0.3100 ha        1 LRG      0.116500
     27 HAC         3.1760    0.5050    2.0840 ha        1 LRG      0.113000
     28 HAF         1.4590    0.0860    3.8460 ha        1 LRG      0.116500
     29 HAJ        -0.9400   -0.1850    3.2150 ha        1 LRG      0.137500
     30 HAQ        -2.1650    0.1520   -0.3620 hc        1 LRG      0.075700
     31 HAQA       -2.6180    0.7100    1.2970 hc        1 LRG      0.075700
     32 HAX        -2.0100   -1.9310    1.8720 h1        1 LRG      0.042700
     33 HAN        -1.4980   -3.6240   -2.0390 ha        1 LRG      0.172000
     34 HAP        -1.3130   -6.1120   -2.0440 ha        1 LRG      0.119500
     35 HAM        -3.3250   -3.7620    1.8950 ha        1 LRG      0.172000
     36 HAO        -3.1020   -6.2460    1.8930 ha        1 LRG      0.119500
     37 HAK        -1.5460   -7.9190    2.0360 ha        1 LRG      0.134500
     38 HAG        -1.3470  -10.4010    2.0400 ha        1 LRG      0.119500
     39 HAD        -1.7440  -11.6940   -0.0570 ha        1 LRG      0.117000
     40 HAH        -2.3490  -10.4930   -2.1590 ha        1 LRG      0.119500
     41 HAL        -2.5620   -8.0140   -2.1660 ha        1 LRG      0.134500
@<TRIPOS>BOND
     1    1    2 ar  
     2    1    6 ar  
     3    1   25 1   
     4    2    3 ar  
     5    2   26 1   
     6    3    4 ar  
     7    3   27 1   
     8    4    5 ar  
     9    4   28 1   
    10    5    6 ar  
    11    5   29 1   
    12    6    7 1   
    13    7    8 1   
    14    7   30 1   
    15    7   31 1   
    16    8    9 1   
    17    8   12 1   
    18    8   32 1   
    19    9   10 1   
    20    9   11 1   
    21   12   13 1   
    22   13   14 ar  
    23   13   16 ar  
    24   14   15 ar  
    25   14   33 1   
    26   15   18 ar  
    27   15   34 1   
    28   16   17 ar  
    29   16   35 1   
    30   17   18 ar  
    31   17   36 1   
    32   18   19 1   
    33   19   20 ar  
    34   19   24 ar  
    35   20   21 ar  
    36   20   37 1   
    37   21   22 ar  
    38   21   38 1   
    39   22   23 ar  
    40   22   39 1   
    41   23   24 ar  
    42   23   40 1   
    43   24   41 1   
@<TRIPOS>SUBSTRUCTURE
     1 LRG         1 TEMP              0 ****  ****    0 ROOT
