@<TRIPOS>MOLECULE
LRH
   23    23     1     0     0
SMALL
bcc


@<TRIPOS>ATOM
      1 C1          1.5220   -0.5340   -0.0410 c3        1 LRH      0.118400
      2 C2          0.1470    0.0970    0.2200 c3        1 LRH      0.265600
      3 C3         -0.2340    0.2130    1.7140 c3        1 LRH      0.110100
      4 C4         -0.8400    1.6330    1.8410 c3        1 LRH      0.083100
      5 C5         -0.5810    2.3270    0.4870 c3        1 LRH      0.150100
      6 C6         -1.8670    2.7130   -0.2090 c3        1 LRH     -0.112100
      7 O1          1.7670   -0.6050   -1.4280 oh        1 LRH     -0.597800
      8 O2         -0.8890   -0.5740   -0.4560 oh        1 LRH     -0.618800
      9 O3         -1.1160   -0.7860    2.1560 oh        1 LRH     -0.582800
     10 O4         -0.1760    2.3880    2.8360 oh        1 LRH     -0.589800
     11 O5          0.1520    1.4080   -0.3430 os        1 LRH     -0.453600
     12 H1C1        1.5210   -1.5970    0.3170 h1        1 LRH      0.069200
     13 H1C2        2.3160    0.0610    0.4800 h1        1 LRH      0.069200
     14 H1          1.8070    0.3030   -1.7570 ho        1 LRH      0.418000
     15 H3          0.6790    0.1100    2.3620 h1        1 LRH      0.096700
     16 H2         -0.5920   -0.7190   -1.3650 ho        1 LRH      0.438000
     17 H4         -1.9380    1.5700    2.0680 h1        1 LRH      0.062700
     18 HA         -1.8190   -0.8820    1.4980 ho        1 LRH      0.428000
     19 H5          0.0950    3.2160    0.6190 h1        1 LRH      0.087700
     20 HB         -0.3780    1.9680    3.6820 ho        1 LRH      0.411000
     21 H6C1       -1.6370    3.1900   -1.1920 hc        1 LRH      0.049700
     22 H6C2       -2.4370    3.4350    0.4230 hc        1 LRH      0.049700
     23 H6C3       -2.4950    1.8080   -0.3970 hc        1 LRH      0.049700
@<TRIPOS>BOND
     1    1    2 1   
     2    1    7 1   
     3    1   12 1   
     4    1   13 1   
     5    2    3 1   
     6    2    8 1   
     7    2   11 1   
     8    3    4 1   
     9    3    9 1   
    10    3   15 1   
    11    4    5 1   
    12    4   10 1   
    13    4   17 1   
    14    5    6 1   
    15    5   11 1   
    16    5   19 1   
    17    6   21 1   
    18    6   22 1   
    19    6   23 1   
    20    7   14 1   
    21    8   16 1   
    22    9   18 1   
    23   10   20 1   
@<TRIPOS>SUBSTRUCTURE
     1 LRH         1 TEMP              0 ****  ****    0 ROOT
