@<TRIPOS>MOLECULE
molecule
   23    23     1     0     0
SMALL
bcc


@<TRIPOS>ATOM
      1 C1           1.5310     0.0000     0.0000 c3         1 LRH       0.118400
      2 C2           0.0000     0.0000     0.0000 c3         1 LRH       0.348600
      3 C3          -0.6010     0.0000     1.4060 c3         1 LRH       0.116100
      4 C4          -0.6300     1.4690     1.7820 c3         1 LRH       0.094100
      5 C5          -0.7160     2.1920     0.4370 c3         1 LRH       0.136100
      6 C6          -2.0840     2.8040     0.1730 c3         1 LRH      -0.099100
      7 O1           1.9860    -0.0100    -1.3430 oh         1 LRH      -0.597800
      8 O2          -0.4630    -1.1410    -0.7160 oh         1 LRH      -0.584800
      9 O3          -1.9420    -0.4870     1.3810 oh         1 LRH      -0.575800
     10 O4           0.5880     1.8070     2.4370 oh         1 LRH      -0.602800
     11 O5          -0.4590     1.2220    -0.5980 os         1 LRH      -0.421600
     12 H1C1         1.8950     0.8890     0.5010 h1         1 LRH       0.037200
     13 H1C2         1.8940    -0.8810     0.5140 h1         1 LRH       0.037200
     14 H1           2.9190    -0.1470    -1.3570 ho         1 LRH       0.403000
     15 H3           0.0160    -0.5660     2.0940 h1         1 LRH       0.063700
     16 H2          -0.6280    -0.9030    -1.6140 ho         1 LRH       0.432000
     17 H4          -1.4900     1.6950     2.4010 h1         1 LRH       0.067700
     18 HA          -2.0330    -1.1900     2.0020 ho         1 LRH       0.407000
     19 H5           0.0420     2.9650     0.3980 h1         1 LRH       0.066700
     20 HB           0.3980     2.1650     3.2880 ho         1 LRH       0.408000
     21 H6C1        -2.8390     2.0270     0.2040 hc         1 LRH       0.048033
     22 H6C2        -2.0880     3.2730    -0.8030 hc         1 LRH       0.048033
     23 H6C3        -2.3000     3.5470     0.9320 hc         1 LRH       0.048033
@<TRIPOS>BOND
     1     1     2 1
     2     2     3 1
     3     3     4 1
     4     4     5 1
     5     5     6 1
     6     1     7 1
     7     2     8 1
     8     3     9 1
     9     4    10 1
    10     2    11 1
    11     5    11 1
    12     1    12 1
    13     1    13 1
    14     7    14 1
    15     3    15 1
    16     8    16 1
    17     4    17 1
    18     9    18 1
    19     5    19 1
    20    10    20 1
    21     6    21 1
    22     6    22 1
    23     6    23 1
@<TRIPOS>SUBSTRUCTURE
     1 LRH         1 TEMP              0 ****  ****    0 ROOT
