@<TRIPOS>MOLECULE
molecule
   31    33     1     0     0
SMALL
bcc


@<TRIPOS>ATOM
      1 CAL          0.0000     0.0000     0.0000 cc         1 LRI      -0.134000
      2 CAM          1.3840     0.0000     0.0000 cd         1 LRI      -0.158000
      3 CAN          1.9460     0.0000     1.2090 cc         1 LRI      -0.063100
      4 SAO          0.6930    -0.0000     2.4430 ss         1 LRI      -0.160800
      5 CAK         -0.5620     0.0010     1.2100 cd         1 LRI      -0.066400
      6 CAJ         -2.0450     0.0050     1.4800 c3         1 LRI       0.314100
      7 NAI         -2.5300    -1.3750     1.5640 nh         1 LRI      -0.779300
      8 CAP         -2.5460    -2.0680     2.8550 cx         1 LRI       0.192500
      9 CAQ         -1.9720    -1.3250     4.0630 cx         1 LRI      -0.156400
     10 CAR         -3.4830    -1.5270     3.9360 cx         1 LRI      -0.156400
     11 C4          -2.9740    -2.0240     0.4240 ca         1 LRI       0.767200
     12 N3          -3.3450    -3.2990     0.4740 nb         1 LRI      -0.832000
     13 C5          -3.0450    -1.3460    -0.7950 ca         1 LRI      -0.469600
     14 C6          -3.4940    -2.0340    -1.9080 ca         1 LRI       0.607300
     15 Cl6         -3.6010    -1.2380    -3.4470 cl         1 LRI      -0.155000
     16 N1          -3.8430    -3.3080    -1.7850 nb         1 LRI      -0.809000
     17 C2          -3.7700    -3.9240    -0.6140 ca         1 LRI       0.989900
     18 NAA         -4.1420    -5.2530    -0.5270 nv         1 LRI      -1.029500
     19 H1          -0.5830     0.0000    -0.9130 ha         1 LRI       0.153000
     20 H2           1.9670    -0.0000    -0.9130 ha         1 LRI       0.150000
     21 H3           3.0120    -0.0000     1.4020 h4         1 LRI       0.171000
     22 H4          -2.2400     0.5140     2.4160 h1         1 LRI       0.068200
     23 H5          -2.5570     0.5200     0.6760 h1         1 LRI       0.068200
     24 H6          -2.4050    -3.1420     2.8740 h1         1 LRI       0.120700
     25 H7          -1.4780    -1.9450     4.8010 hc         1 LRI       0.079200
     26 H8          -1.6160    -0.3210     3.8690 hc         1 LRI       0.079200
     27 H9          -4.0510    -0.6450     3.6650 hc         1 LRI       0.079200
     28 H10         -3.9130    -2.2690     4.5970 hc         1 LRI       0.079200
     29 H11         -2.9770    -0.2650    -0.8180 ha         1 LRI       0.152000
     30 H12         -3.7100    -5.9330    -1.1200 hn         1 LRI       0.448800
     31 H13         -4.8500    -5.5330     0.1230 hn         1 LRI       0.448800
@<TRIPOS>BOND
     1     3     2 2
     2     3     4 1
     3     2     1 1
     4    15    14 1
     5     1     5 2
     6     4     5 1
     7    14    13 ar
     8    14    16 ar
     9     5     6 1
    10    13    11 ar
    11    16    17 ar
    12     8    10 1
    13     8     7 1
    14     8     9 1
    15    17    18 1
    16    17    12 ar
    17    11     7 1
    18    11    12 ar
    19    10     9 1
    20     7     6 1
    21     1    19 1
    22     2    20 1
    23     3    21 1
    24     6    22 1
    25     6    23 1
    26     8    24 1
    27     9    25 1
    28     9    26 1
    29    10    27 1
    30    10    28 1
    31    13    29 1
    32    18    30 1
    33    18    31 1
@<TRIPOS>SUBSTRUCTURE
     1 LRI         1 TEMP              0 ****  ****    0 ROOT
