@<TRIPOS>MOLECULE
LRI
   31    33     1     0     0
SMALL
bcc


@<TRIPOS>ATOM
      1 CAL          0.0000     0.0000     0.0000 cc         1 LRI      -0.107000
      2 CAM          1.3840     0.0000     0.0000 cc         1 LRI      -0.127000
      3 CAN          1.9460     0.0000     1.2090 cd         1 LRI       0.016900
      4 SAO          0.6930    -0.0000     2.4430 ss         1 LRI      -0.275800
      5 CAK         -0.5620     0.0010     1.2100 cd         1 LRI      -0.028400
      6 CAJ         -2.0450     0.0050     1.4800 c3         1 LRI       0.248100
      7 NAI         -2.5300    -1.3750     1.5640 nh         1 LRI      -0.398300
      8 CAP         -2.5460    -2.0680     2.8550 cx         1 LRI       0.082500
      9 CAQ         -1.9720    -1.3250     4.0630 cx         1 LRI      -0.097900
     10 CAR         -3.4830    -1.5270     3.9360 cx         1 LRI      -0.097900
     11 C4          -2.9740    -2.0240     0.4240 ca         1 LRI       0.591200
     12 N3          -3.3450    -3.2990     0.4740 nb         1 LRI      -0.724000
     13 C5          -3.0450    -1.3460    -0.7950 ca         1 LRI      -0.471600
     14 C6          -3.4940    -2.0340    -1.9080 ca         1 LRI       0.504300
     15 Cl6         -3.6010    -1.2380    -3.4470 cl         1 LRI      -0.088000
     16 N1          -3.8430    -3.3080    -1.7850 nb         1 LRI      -0.699000
     17 C2          -3.7700    -3.9240    -0.6140 ca         1 LRI       0.760900
     18 NAA         -4.1420    -5.2530    -0.5270 nv         1 LRI      -0.573500
     19 H1          -0.5830     0.0000    -0.9130 ha         1 LRI       0.129000
     20 H2           1.9670    -0.0000    -0.9130 ha         1 LRI       0.122000
     21 H3           3.0120    -0.0000     1.4020 h4         1 LRI       0.149000
     22 H4          -2.2400     0.5140     2.4160 h1         1 LRI       0.042200
     23 H5          -2.5570     0.5200     0.6760 h1         1 LRI       0.042200
     24 H6          -2.4050    -3.1420     2.8740 h1         1 LRI       0.091700
     25 H7          -1.4780    -1.9450     4.8010 hc         1 LRI       0.053200
     26 H8          -1.6160    -0.3210     3.8690 hc         1 LRI       0.053200
     27 H9          -4.0510    -0.6450     3.6650 hc         1 LRI       0.053200
     28 H10         -3.9130    -2.2690     4.5970 hc         1 LRI       0.053200
     29 H11         -2.9770    -0.2650    -0.8180 ha         1 LRI       0.143000
     30 H12         -3.7100    -5.9330    -1.1200 hn         1 LRI       0.277800
     31 H13         -4.8500    -5.5330     0.1230 hn         1 LRI       0.277800
@<TRIPOS>BOND
     1     1     2 1   
     2     1     5 2   
     3     1    19 1   
     4     2     3 2   
     5     2    20 1   
     6     3     4 1   
     7     3    21 1   
     8     4     5 1   
     9     5     6 1   
    10     6     7 1   
    11     6    22 1   
    12     6    23 1   
    13     7     8 1   
    14     7    11 1   
    15     8     9 1   
    16     8    10 1   
    17     8    24 1   
    18     9    10 1   
    19     9    25 1   
    20     9    26 1   
    21    10    27 1   
    22    10    28 1   
    23    11    12 ar  
    24    11    13 ar  
    25    12    17 ar  
    26    13    14 ar  
    27    13    29 1   
    28    14    15 1   
    29    14    16 ar  
    30    16    17 ar  
    31    17    18 1   
    32    18    30 1   
    33    18    31 1   
@<TRIPOS>SUBSTRUCTURE
     1 LRI         1 TEMP              0 ****  ****    0 ROOT
