@<TRIPOS>MOLECULE
LRO
   33    34     1     0     0
SMALL
bcc


@<TRIPOS>ATOM
      1 OAB          0.0000     0.0000     0.0000 o          1 LRO      -0.854800
      2 CAN          1.3460     0.0000     0.0000 c          1 LRO       0.975800
      3 OAE          1.9530     0.0000     1.0510 o          1 LRO      -0.854800
      4 CAQ          2.0880     0.0000    -1.2840 cc         1 LRO      -0.133600
      5 NAL          1.4100    -0.1240    -2.4780 ns         1 LRO       0.054900
      6 CAS          2.0640    -0.1250    -3.6510 c          1 LRO       0.560500
      7 OAC          1.4290    -0.2380    -4.6820 o          1 LRO      -0.761500
      8 NAM          3.4010    -0.0060    -3.7160 ns         1 LRO      -0.139500
      9 CAT          4.1320     0.1200    -2.5890 c          1 LRO       0.617700
     10 OAD          5.3420     0.2290    -2.6450 o          1 LRO      -0.698500
     11 CAR          3.4390     0.1290    -1.2950 cd         1 LRO      -0.269400
     12 CAK          4.2120     0.2680    -0.0080 c3         1 LRO       0.021800
     13 CAJ          4.6390    -1.1160     0.4820 c3         1 LRO       0.033900
     14 CAP          5.4120    -0.9780     1.7690 ca         1 LRO      -0.057300
     15 CAH          4.7470    -1.0090     2.9800 ca         1 LRO      -0.091500
     16 CAF          5.4560    -0.8810     4.1610 ca         1 LRO      -0.119000
     17 CAO          6.8280    -0.7230     4.1290 ca         1 LRO      -0.119300
     18 CAA          7.6000    -0.5830     5.4160 c3         1 LRO       0.071200
     19 CAG          7.4930    -0.6930     2.9170 ca         1 LRO      -0.119000
     20 CAI          6.7860    -0.8250     1.7380 ca         1 LRO      -0.091500
     21 H2           3.8580    -0.0110    -4.6070 hn         1 LRO       0.187500
     22 H4           3.5850     0.7380     0.7400 hc         1 LRO       0.054700
     23 H5           5.0910     0.8780    -0.1790 hc         1 LRO       0.054700
     24 H6           5.2660    -1.5870    -0.2670 hc         1 LRO       0.021200
     25 H7           3.7600    -1.7260     0.6520 hc         1 LRO       0.021200
     26 H8           3.6720    -1.1360     3.0050 ha         1 LRO       0.120500
     27 H9           4.9350    -0.9060     5.1100 ha         1 LRO       0.094500
     28 H10          8.3050     0.2350     5.3280 hc         1 LRO      -0.002633
     29 H11          8.1370    -1.5030     5.6170 hc         1 LRO      -0.002633
     30 H12          6.9130    -0.3820     6.2290 hc         1 LRO      -0.002633
     31 H13          8.5700    -0.5720     2.8920 ha         1 LRO       0.094500
     32 H14          7.3950    -0.8830     0.8440 ha         1 LRO       0.120500
     33 H15          0.4130    -0.2160    -2.4710 hn         1 LRO       0.212500
@<TRIPOS>BOND
     1     1     2 1   
     2     2     3 1   
     3     2     4 1   
     4     4     5 1   
     5     4    11 2   
     6     5     6 1   
     7     5    33 1   
     8     6     7 2   
     9     6     8 1   
    10     8     9 1   
    11     8    21 1   
    12     9    10 2   
    13     9    11 1   
    14    11    12 1   
    15    12    13 1   
    16    12    22 1   
    17    12    23 1   
    18    13    14 1   
    19    13    24 1   
    20    13    25 1   
    21    14    15 ar  
    22    14    20 ar  
    23    15    16 ar  
    24    15    26 1   
    25    16    17 ar  
    26    16    27 1   
    27    17    18 1   
    28    17    19 ar  
    29    18    28 1   
    30    18    29 1   
    31    18    30 1   
    32    19    20 ar  
    33    19    31 1   
    34    20    32 1   
@<TRIPOS>SUBSTRUCTURE
     1 LRO         1 TEMP              0 ****  ****    0 ROOT
