@<TRIPOS>MOLECULE
molecule
   33    34     1     0     0
SMALL
bcc


@<TRIPOS>ATOM
      1 OAB          0.0000     0.0000     0.0000 o          1 LRO      -0.806800
      2 CAN          1.3460     0.0000     0.0000 c          1 LRO       0.880800
      3 OAE          1.9530     0.0000     1.0510 o          1 LRO      -0.806800
      4 CAQ          2.0880     0.0000    -1.2840 cc         1 LRO       0.040400
      5 NAL          1.4100    -0.1240    -2.4780 ns         1 LRO      -0.428100
      6 CAS          2.0640    -0.1250    -3.6510 c          1 LRO       0.798500
      7 OAC          1.4290    -0.2380    -4.6820 o          1 LRO      -0.706500
      8 NAM          3.4010    -0.0060    -3.7160 ns         1 LRO      -0.567500
      9 CAT          4.1320     0.1200    -2.5890 c          1 LRO       0.700700
     10 OAD          5.3420     0.2290    -2.6450 o          1 LRO      -0.659500
     11 CAR          3.4390     0.1290    -1.2950 cd         1 LRO      -0.280400
     12 CAK          4.2120     0.2680    -0.0080 c3         1 LRO      -0.005200
     13 CAJ          4.6390    -1.1160     0.4820 c3         1 LRO      -0.025100
     14 CAP          5.4120    -0.9780     1.7690 ca         1 LRO      -0.056300
     15 CAH          4.7470    -1.0090     2.9800 ca         1 LRO      -0.117000
     16 CAF          5.4560    -0.8810     4.1610 ca         1 LRO      -0.141500
     17 CAO          6.8280    -0.7230     4.1290 ca         1 LRO      -0.108300
     18 CAA          7.6000    -0.5830     5.4160 c3         1 LRO      -0.041800
     19 CAG          7.4930    -0.6930     2.9170 ca         1 LRO      -0.141500
     20 CAI          6.7860    -0.8250     1.7380 ca         1 LRO      -0.117000
     21 H2           3.8580    -0.0110    -4.6070 hn         1 LRO       0.340500
     22 H4           3.5850     0.7380     0.7400 hc         1 LRO       0.075700
     23 H5           5.0910     0.8780    -0.1790 hc         1 LRO       0.075700
     24 H6           5.2660    -1.5870    -0.2670 hc         1 LRO       0.049700
     25 H7           3.7600    -1.7260     0.6520 hc         1 LRO       0.049700
     26 H8           3.6720    -1.1360     3.0050 ha         1 LRO       0.145000
     27 H9           4.9350    -0.9060     5.1100 ha         1 LRO       0.116000
     28 H10          8.3050     0.2350     5.3280 hc         1 LRO       0.032033
     29 H11          8.1370    -1.5030     5.6170 hc         1 LRO       0.032033
     30 H12          6.9130    -0.3820     6.2290 hc         1 LRO       0.032033
     31 H13          8.5700    -0.5720     2.8920 ha         1 LRO       0.116000
     32 H14          7.3950    -0.8830     0.8440 ha         1 LRO       0.145000
     33 H15          0.4130    -0.2160    -2.4710 hn         1 LRO       0.377500
@<TRIPOS>BOND
     1    19    17 ar
     2    19    20 ar
     3    18    17 1
     4    17    16 ar
     5    20    14 ar
     6    14    15 ar
     7    14    13 1
     8    16    15 ar
     9    13    12 1
    10    12    11 1
    11    10     9 2
    12    11     9 1
    13    11     4 2
    14     9     8 1
    15     3     2 1
    16     2     4 1
    17     2     1 1
    18     4     5 1
    19     8     6 1
    20     5     6 1
    21     6     7 2
    22     8    21 1
    23    12    22 1
    24    12    23 1
    25    13    24 1
    26    13    25 1
    27    15    26 1
    28    16    27 1
    29    18    28 1
    30    18    29 1
    31    18    30 1
    32    19    31 1
    33    20    32 1
    34     5    33 1
@<TRIPOS>SUBSTRUCTURE
     1 LRO         1 TEMP              0 ****  ****    0 ROOT
