@<TRIPOS>MOLECULE
LRY
   33    32     1     0     0
SMALL
bcc


@<TRIPOS>ATOM
      1 N            0.0000     0.0000     0.0000 ns         1 LRY      -0.155900
      2 P            1.7300     3.7600     6.6660 p5         1 LRY       0.667900
      3 C1           1.9670    -1.2300    -0.7110 c          1 LRY       0.655900
      4 O1           1.1850    -1.9890    -1.2300 o          1 LRY      -0.583100
      5 C2           1.4650     0.0000     0.0000 c3         1 LRY      -0.140300
      6 C3           1.9760     0.0000     1.4420 c3         1 LRY       0.179100
      7 O3           3.4040     0.0350     1.4410 oh         1 LRY      -0.555800
      8 C4           1.4350     1.2290     2.1740 c3         1 LRY       0.170100
      9 O4           1.8370     2.4110     1.4800 oh         1 LRY      -0.576800
     10 C5           1.9940     1.2610     3.5990 c3         1 LRY       0.132100
     11 O5           1.5930     0.0770     4.2930 oh         1 LRY      -0.621800
     12 C6           1.4540     2.4900     4.3320 c3         1 LRY       0.266400
     13 O6           2.0640     2.5830     5.6200 os         1 LRY      -0.475200
     14 C7          -0.6750     0.4880    -1.0590 c          1 LRY       0.579100
     15 O7          -0.0690     0.9290    -2.0130 o          1 LRY      -0.671100
     16 C8          -2.1820     0.4870    -1.0580 c3         1 LRY      -0.067100
     17 OP1          2.4960     3.4780     8.0540 o          1 LRY      -0.754500
     18 OP2          2.2160     5.1700     6.0610 o          1 LRY      -0.754500
     19 OP3          0.2700     3.8050     6.9090 o          1 LRY      -0.754500
     20 HN          -0.5000    -0.3950     0.7720 hn         1 LRY       0.180500
     21 H1           3.0330    -1.3940    -0.8190 h4         1 LRY      -0.040800
     22 H2           1.8260     0.8850    -0.5110 h1         1 LRY       0.103700
     23 H3           1.6380    -0.8980     1.9450 h1         1 LRY       0.014700
     24 HO3          3.7400    -0.8130     1.6820 ho         1 LRY       0.372000
     25 H4           0.3540     1.1810     2.2110 h1         1 LRY       0.002700
     26 HO4          1.1210     3.0250     1.4640 ho         1 LRY       0.395000
     27 H5           3.0760     1.3090     3.5620 h1         1 LRY       0.021700
     28 HO5          2.2860    -0.1980     4.8710 ho         1 LRY       0.400000
     29 H6           0.3810     2.3990     4.4460 h1         1 LRY      -0.022800
     30 H6A          1.6820     3.3800     3.7590 h1         1 LRY      -0.022800
     31 H8          -2.5420    -0.4780    -0.7230 hc         1 LRY       0.018700
     32 H8A         -2.5430     0.6800    -2.0610 hc         1 LRY       0.018700
     33 H8B         -2.5430     1.2590    -0.3890 hc         1 LRY       0.018700
@<TRIPOS>BOND
     1     1     5 1   
     2     1    14 1   
     3     1    20 1   
     4     2    13 1   
     5     2    17 1   
     6     2    18 1   
     7     2    19 1   
     8     3     4 2   
     9     3     5 1   
    10     3    21 1   
    11     5     6 1   
    12     5    22 1   
    13     6     7 1   
    14     6     8 1   
    15     6    23 1   
    16     7    24 1   
    17     8     9 1   
    18     8    10 1   
    19     8    25 1   
    20     9    26 1   
    21    10    11 1   
    22    10    12 1   
    23    10    27 1   
    24    11    28 1   
    25    12    13 1   
    26    12    29 1   
    27    12    30 1   
    28    14    15 2   
    29    14    16 1   
    30    16    31 1   
    31    16    32 1   
    32    16    33 1   
@<TRIPOS>SUBSTRUCTURE
     1 LRY         1 TEMP              0 ****  ****    0 ROOT
