@<TRIPOS>MOLECULE
LRY
   34    33     1     0     0
SMALL
bcc


@<TRIPOS>ATOM
      1 N           0.0000    0.0000    0.0000 ny        1 LRY      0.249200
      2 P           1.7300    3.7600    6.6660 p5        1 LRY      0.765900
      3 C1          1.9670   -1.2300   -0.7110 c         1 LRY      0.673900
      4 O1          1.1850   -1.9890   -1.2300 o         1 LRY     -0.548100
      5 C2          1.4650    0.0000    0.0000 c3        1 LRY     -0.215500
      6 C3          1.9760    0.0000    1.4420 c3        1 LRY      0.186100
      7 O3          3.4040    0.0350    1.4410 oh        1 LRY     -0.539800
      8 C4          1.4350    1.2290    2.1740 c3        1 LRY      0.157100
      9 O4          1.8370    2.4110    1.4800 oh        1 LRY     -0.568800
     10 C5          1.9940    1.2610    3.5990 c3        1 LRY      0.142100
     11 O5          1.5930    0.0770    4.2930 oh        1 LRY     -0.611800
     12 C6          1.4540    2.4900    4.3320 c3        1 LRY      0.278400
     13 O6          2.0640    2.5830    5.6200 os        1 LRY     -0.483200
     14 C7         -0.6750    0.4880   -1.0590 c         1 LRY      0.093100
     15 O7         -0.0690    0.9290   -2.0130 o         1 LRY     -0.610100
     16 C8         -2.1820    0.4870   -1.0580 c3        1 LRY      0.000900
     17 OP1         2.2160    5.1700    6.0610 o         1 LRY     -0.587500
     18 OP2         2.4960    3.4780    8.0540 o         1 LRY     -0.587500
     19 OP3         0.2700    3.8050    6.9090 o         1 LRY     -0.587500
     20 HN         -0.2910    0.5280    0.7990 hn        1 LRY      0.194300
     21 H1          3.0320   -1.4110   -0.7950 h4        1 LRY     -0.004800
     22 H2          1.8260    0.8850   -0.5110 hx        1 LRY      0.142700
     23 H3          1.6380   -0.8980    1.9450 h1        1 LRY      0.022700
     24 HO3         3.7400   -0.8110    1.6880 ho        1 LRY      0.388000
     25 H4          0.3540    1.1810    2.2110 h1        1 LRY     -0.000300
     26 HO4         1.1230    3.0270    1.4690 ho        1 LRY      0.403000
     27 H5          3.0760    1.3090    3.5620 h1        1 LRY      0.032700
     28 HO5         2.3150   -0.2450    4.8080 ho        1 LRY      0.407000
     29 H6          1.6820    3.3800    3.7590 h1        1 LRY     -0.015800
     30 H6A         0.3810    2.3990    4.4460 h1        1 LRY     -0.015800
     31 H8         -2.5430    0.4730   -2.0790 hc        1 LRY      0.015033
     32 H8A        -2.5420   -0.3900   -0.5350 hc        1 LRY      0.015033
     33 H8B        -2.5430    1.3790   -0.5590 hc        1 LRY      0.015033
     34 HN3        -0.2910   -0.9500    0.1200 hn        1 LRY      0.194300
@<TRIPOS>BOND
     1    1    5 1   
     2    1   14 1   
     3    1   20 1   
     4    1   34 1   
     5    2   13 1   
     6    2   17 1   
     7    2   18 1   
     8    2   19 1   
     9    3    4 2   
    10    3    5 1   
    11    3   21 1   
    12    5    6 1   
    13    5   22 1   
    14    6    7 1   
    15    6    8 1   
    16    6   23 1   
    17    7   24 1   
    18    8    9 1   
    19    8   10 1   
    20    8   25 1   
    21    9   26 1   
    22   10   11 1   
    23   10   12 1   
    24   10   27 1   
    25   11   28 1   
    26   12   13 1   
    27   12   29 1   
    28   12   30 1   
    29   14   15 2   
    30   14   16 1   
    31   16   31 1   
    32   16   32 1   
    33   16   33 1   
@<TRIPOS>SUBSTRUCTURE
     1 LRY         1 TEMP              0 ****  ****    0 ROOT
