@<TRIPOS>MOLECULE
molecule
   38    40     1     0     0
SMALL
bcc


@<TRIPOS>ATOM
      1 N1           0.0000     0.0000     0.0000 ns         1 LS1      -0.446100
      2 C2           1.3440     0.0000     0.0000 c          1 LS1       0.728700
      3 C3           1.7980     0.0000     1.3950 cc         1 LS1      -0.282400
      4 C4           0.3120     0.0020     3.5720 ca         1 LS1      -0.092000
      5 C5          -0.9890     0.0020     4.0340 ca         1 LS1      -0.148000
      6 C6          -2.0440     0.0020     3.1370 ca         1 LS1      -0.104000
      7 C7          -1.8110     0.0000     1.7770 ca         1 LS1      -0.150000
      8 C8          -0.5070     0.0000     1.2940 ca         1 LS1       0.044600
      9 C9           0.5570    -0.0050     2.2040 ca         1 LS1      -0.076800
     10 O11          2.0590    -0.0010    -0.9860 o          1 LS1      -0.660500
     11 C12          3.0860     0.0010     1.8490 c2         1 LS1       0.185000
     12 N17          4.1190    -0.0010     0.9620 nu         1 LS1      -0.624400
     13 C20          5.4370     0.0000     1.4270 ca         1 LS1       0.208600
     14 C21          6.4930    -0.0010     0.5250 ca         1 LS1      -0.205500
     15 C22          7.7940    -0.0010     0.9870 ca         1 LS1       0.010500
     16 C23          8.0470    -0.0010     2.3470 ca         1 LS1      -0.351500
     17 C24          6.9980    -0.0050     3.2470 ca         1 LS1       0.010500
     18 C25          5.6940     0.0010     2.7910 ca         1 LS1      -0.205500
     19 S30          9.7080    -0.0010     2.9310 sy         1 LS1       1.431200
     20 O31         10.4920    -0.5280     1.8700 o          1 LS1      -0.637800
     21 O32          9.6530    -0.5270     4.2500 o          1 LS1      -0.637800
     22 N33         10.1760     1.5780     3.0950 n7         1 LS1      -0.918100
     23 C35          9.4470     2.4670     4.0030 c3         1 LS1       0.224100
     24 H1N         -0.5640    -0.0000    -0.8270 hn         1 LS1       0.340500
     25 H41          1.1380     0.0020     4.2720 ha         1 LS1       0.126000
     26 H51         -1.1850     0.0040     5.0990 ha         1 LS1       0.133000
     27 H61         -3.0630     0.0020     3.5060 ha         1 LS1       0.134000
     28 H71         -2.6440     0.0000     1.0850 ha         1 LS1       0.132000
     29 H121         3.2850     0.0010     2.9130 h4         1 LS1       0.164000
     30 H17N         3.9350    -0.0240    -0.0210 hn         1 LS1       0.489800
     31 H211         6.2970    -0.0010    -0.5410 ha         1 LS1       0.142500
     32 H221         8.6180     0.0010     0.2830 ha         1 LS1       0.155500
     33 H241         7.1990    -0.0050     4.3120 ha         1 LS1       0.155500
     34 H251         4.8730    -0.0030     3.4980 ha         1 LS1       0.142500
     35 H33N        10.9770     1.9160     2.5990 hn         1 LS1       0.456800
     36 H351         9.1030     1.9030     4.8610 h1         1 LS1       0.041700
     37 H352         8.5970     2.8940     3.4860 h1         1 LS1       0.041700
     38 H353        10.1050     3.2620     4.3340 h1         1 LS1       0.041700
@<TRIPOS>BOND
     1     1     2 1
     2     1     8 1
     3     1    24 1
     4     2     3 1
     5     2    10 2
     6     3     9 1
     7     3    11 2
     8     4     5 ar
     9     4     9 ar
    10     4    25 1
    11     5     6 ar
    12     5    26 1
    13     6     7 ar
    14     6    27 1
    15     7     8 ar
    16     7    28 1
    17     8     9 ar
    18    11    12 1
    19    11    29 1
    20    12    13 1
    21    12    30 1
    22    13    14 ar
    23    13    18 ar
    24    14    15 ar
    25    14    31 1
    26    15    16 ar
    27    15    32 1
    28    16    17 ar
    29    16    19 1
    30    17    18 ar
    31    17    33 1
    32    18    34 1
    33    19    20 2
    34    19    21 2
    35    19    22 1
    36    22    23 1
    37    22    35 1
    38    23    36 1
    39    23    37 1
    40    23    38 1
@<TRIPOS>SUBSTRUCTURE
     1 LS1         1 TEMP              0 ****  ****    0 ROOT
