@<TRIPOS>MOLECULE
LS2
   42    45     1     0     0
SMALL
bcc


@<TRIPOS>ATOM
      1 N1           0.0000     0.0000     0.0000 ns         1 LS2       0.035900
      2 C2           1.3430     0.0000     0.0000 c          1 LS2       0.523200
      3 C3           1.7940     0.0000     1.4020 cc         1 LS2       0.155900
      4 C4           0.2820     0.0010     3.5650 ca         1 LS2       0.069900
      5 C5          -1.0360     0.0010     4.0710 ca         1 LS2       0.027400
      6 C6          -2.0790    -0.0000     3.1150 ca         1 LS2      -0.013000
      7 C7          -1.8150     0.0000     1.7830 ca         1 LS2      -0.112000
      8 C8          -0.5080     0.0000     1.2930 ca         1 LS2      -0.112400
      9 C9           0.5520    -0.0060     2.2080 ca         1 LS2      -0.079900
     10 O11          2.0610    -0.0010    -0.9840 o          1 LS2      -0.698500
     11 N12          3.0340     0.0010     1.8430 n2         1 LS2      -0.332400
     12 S13          1.2520     0.0010     5.0510 ss         1 LS2      -0.253100
     13 C14         -0.0630     0.0020     6.1840 cc         1 LS2       0.441100
     14 N15         -1.1170     0.0010     5.4180 nd         1 LS2      -0.464100
     15 N19          4.0160     0.0010     1.0060 nu         1 LS2       0.020300
     16 C21          5.3290     0.0000     1.4740 ca         1 LS2      -0.012400
     17 C22          6.3880    -0.0000     0.5740 ca         1 LS2      -0.116500
     18 C23          7.6880    -0.0000     1.0400 ca         1 LS2      -0.059500
     19 C24          7.9360    -0.0010     2.4010 ca         1 LS2      -0.107300
     20 C25          6.8850    -0.0070     3.2990 ca         1 LS2      -0.059500
     21 C26          5.5820    -0.0000     2.8400 ca         1 LS2      -0.116500
     22 C29          9.3560    -0.0030     2.9060 c3         1 LS2       0.058700
     23 S34          9.9280     1.7060     3.1090 s6         1 LS2       0.956900
     24 O35          9.2800     2.3480     4.1980 o          1 LS2      -0.577300
     25 O36         10.1120     2.3490     1.8560 o          1 LS2      -0.577300
     26 N37         11.4780     1.5230     3.6610 n7         1 LS2      -0.601100
     27 C39         12.4650     0.8130     2.8460 c3         1 LS2       0.263100
     28 H1N         -0.5640    -0.0000    -0.8270 hn         1 LS2       0.177500
     29 H61         -3.1080    -0.0010     3.4530 ha         1 LS2       0.113000
     30 H71         -2.6410     0.0010     1.0820 ha         1 LS2       0.107000
     31 H141        -0.0210    -0.3450     7.2090 h5         1 LS2       0.044800
     32 H19N         3.8350     0.0290     0.0230 hn         1 LS2       0.320800
     33 H221         6.1940     0.0000    -0.4920 ha         1 LS2       0.127000
     34 H231         8.5140     0.0020     0.3400 ha         1 LS2       0.116000
     35 H251         7.0830    -0.0070     4.3640 ha         1 LS2       0.116000
     36 H261         4.7590    -0.0050     3.5440 ha         1 LS2       0.127000
     37 H291         9.4000    -0.5140     3.8600 h1         1 LS2       0.070200
     38 H292         9.9920    -0.5140     2.1930 h1         1 LS2       0.070200
     39 H37N        11.7490     1.9280     4.5350 hn         1 LS2       0.352800
     40 H391        12.2580     0.9840     1.7960 h1         1 LS2      -0.001300
     41 H392        13.4580     1.1770     3.0820 h1         1 LS2      -0.001300
     42 H393        12.4110    -0.2490     3.0560 h1         1 LS2      -0.001300
@<TRIPOS>BOND
     1     1     2 1   
     2     1     8 1   
     3     1    28 1   
     4     2     3 1   
     5     2    10 2   
     6     3     9 1   
     7     3    11 2   
     8     4     5 ar  
     9     4     9 ar  
    10     4    12 1   
    11     5     6 ar  
    12     5    14 1   
    13     6     7 ar  
    14     6    29 1   
    15     7     8 ar  
    16     7    30 1   
    17     8     9 ar  
    18    11    15 1   
    19    12    13 1   
    20    13    14 2   
    21    13    31 1   
    22    15    16 1   
    23    15    32 1   
    24    16    17 ar  
    25    16    21 ar  
    26    17    18 ar  
    27    17    33 1   
    28    18    19 ar  
    29    18    34 1   
    30    19    20 ar  
    31    19    22 1   
    32    20    21 ar  
    33    20    35 1   
    34    21    36 1   
    35    22    23 1   
    36    22    37 1   
    37    22    38 1   
    38    23    24 2   
    39    23    25 2   
    40    23    26 1   
    41    26    27 1   
    42    26    39 1   
    43    27    40 1   
    44    27    41 1   
    45    27    42 1   
@<TRIPOS>SUBSTRUCTURE
     1 LS2         1 TEMP              0 ****  ****    0 ROOT
