@<TRIPOS>MOLECULE
LS3
   43    47     1     0     0
SMALL
bcc


@<TRIPOS>ATOM
      1 O5         -0.0360   -0.0990   -0.0010 o         1 LS3     -0.645500
      2 C6          1.2050   -0.0640   -0.0010 c         1 LS3      0.722700
      3 N7          1.9950   -0.0390    1.1710 n         1 LS3     -0.469100
      4 C8          3.3530    0.0040    0.8200 ca        1 LS3      0.066600
      5 C9          4.4830    0.0400    1.6330 ca        1 LS3     -0.165000
      6 C10         5.7370    0.0800    1.0180 ca        1 LS3     -0.079000
      7 C11         5.8720    0.0840   -0.3770 ca        1 LS3     -0.154500
      8 C12         7.1860    0.1260   -0.9580 cc        1 LS3      0.225900
      9 O13         7.2970    0.1280   -2.3610 os        1 LS3     -0.389800
     10 C14         8.6750    0.1730   -2.6140 cc        1 LS3      0.476300
     11 N15         9.4000    0.1970   -1.5020 nd        1 LS3     -0.663000
     12 C16         8.4820    0.1680   -0.4440 cd        1 LS3      0.230900
     13 C17         4.7290    0.0470   -1.2050 ca        1 LS3     -0.068000
     14 C18         3.4820    0.0070   -0.6210 ca        1 LS3     -0.070800
     15 C19         2.1320   -0.0370   -1.1720 cc        1 LS3     -0.264400
     16 C20         1.7620   -0.0510   -2.4820 c2        1 LS3      0.193000
     17 N21         0.4630   -0.1010   -2.9010 nh        1 LS3     -0.624400
     18 C22         0.0520   -0.1040   -4.2410 ca        1 LS3      0.166600
     19 C23        -1.3270    0.1070   -4.5180 ca        1 LS3     -0.144000
     20 C24        -1.7640    0.1000   -5.8290 ca        1 LS3     -0.031300
     21 C25        -3.1630    0.3050   -6.2720 c3        1 LS3     -0.259300
     22 S26        -3.1910    0.2100   -8.0000 s6        1 LS3      1.303000
     23 O27        -3.5390    1.4510   -8.5400 o         1 LS3     -0.642800
     24 O28        -3.9330   -0.9020   -8.4050 o         1 LS3     -0.642800
     25 C29        -1.5030   -0.0850   -8.2300 c3        1 LS3     -0.250300
     26 C30        -0.8630   -0.1130   -6.8970 ca        1 LS3     -0.098300
     27 C31         0.4810   -0.3240   -6.6320 ca        1 LS3     -0.065000
     28 C32         0.9410   -0.3250   -5.3140 ca        1 LS3     -0.175000
     29 H7N         1.6490   -0.0500    2.0930 hn        1 LS3      0.343500
     30 H91         4.4020    0.0370    2.7280 ha        1 LS3      0.144000
     31 H101        6.6390    0.1080    1.6490 ha        1 LS3      0.139000
     32 H141        8.9660    0.1820   -3.6650 h5        1 LS3      0.087100
     33 H161        8.8170    0.1790    0.5930 h4        1 LS3      0.053100
     34 H171        4.8490    0.0510   -2.2980 ha        1 LS3      0.146000
     35 H201        2.5470   -0.0180   -3.2650 h4        1 LS3      0.158000
     36 H21N       -0.2590   -0.0880   -2.2030 hn        1 LS3      0.476800
     37 H231       -2.0460    0.2750   -3.7020 ha        1 LS3      0.152000
     38 H251       -3.5400    1.2980   -5.9070 h1        1 LS3      0.135200
     39 H252       -3.8310   -0.4670   -5.8060 h1        1 LS3      0.135200
     40 H291       -1.3230   -1.0560   -8.7640 h1        1 LS3      0.131700
     41 H292       -1.0290    0.7080   -8.8690 h1        1 LS3      0.131700
     42 H311        1.1890   -0.4960   -7.4570 ha        1 LS3      0.145000
     43 H321        2.0100   -0.5110   -5.1370 ha        1 LS3      0.140000
@<TRIPOS>BOND
     1    1    2 2   
     2    2    3 1   
     3    2   15 1   
     4    3    4 1   
     5    3   29 1   
     6    4    5 ar  
     7    4   14 ar  
     8    5    6 ar  
     9    5   30 1   
    10    6    7 ar  
    11    6   31 1   
    12    7    8 1   
    13    7   13 ar  
    14    8    9 1   
    15    8   12 2   
    16    9   10 1   
    17   10   11 2   
    18   10   32 1   
    19   11   12 1   
    20   12   33 1   
    21   13   14 ar  
    22   13   34 1   
    23   14   15 1   
    24   15   16 2   
    25   16   17 1   
    26   16   35 1   
    27   17   18 1   
    28   17   36 1   
    29   18   19 ar  
    30   18   28 ar  
    31   19   20 ar  
    32   19   37 1   
    33   20   21 1   
    34   20   26 ar  
    35   21   22 1   
    36   21   38 1   
    37   21   39 1   
    38   22   23 2   
    39   22   24 2   
    40   22   25 1   
    41   25   26 1   
    42   25   40 1   
    43   25   41 1   
    44   26   27 ar  
    45   27   28 ar  
    46   27   42 1   
    47   28   43 1   
@<TRIPOS>SUBSTRUCTURE
     1 LS3         1 TEMP              0 ****  ****    0 ROOT
