@<TRIPOS>MOLECULE
molecule
   41    44     1     0     0
SMALL
bcc


@<TRIPOS>ATOM
      1 O5           0.0000     0.0000     0.0000 o          1 LS4      -0.661500
      2 C6           1.2190     0.0000     0.0000 c          1 LS4       0.728700
      3 N7           2.0100     0.0000     1.0870 ns         1 LS4      -0.445100
      4 C8           3.3530    -0.0010     0.7360 ca         1 LS4       0.044600
      5 C9           4.5110    -0.0000     1.5070 ca         1 LS4      -0.150000
      6 C10          5.7480    -0.0010     0.8970 ca         1 LS4      -0.104000
      7 C11          5.8540    -0.0010    -0.4840 ca         1 LS4      -0.148000
      8 C12          4.7150    -0.0010    -1.2640 ca         1 LS4      -0.092000
      9 C13          3.4640    -0.0010    -0.6590 ca         1 LS4      -0.075800
     10 C14          2.0810    -0.0070    -1.1880 cc         1 LS4      -0.285400
     11 C15          1.6910    -0.0140    -2.4970 c2         1 LS4       0.188000
     12 N16          0.3670    -0.0200    -2.8120 nu         1 LS4      -0.624400
     13 C17         -0.0320    -0.0280    -4.1520 ca         1 LS4       0.211600
     14 C18         -1.3830    -0.0340    -4.4760 ca         1 LS4      -0.211000
     15 C19         -1.7730    -0.0410    -5.8000 ca         1 LS4       0.024000
     16 C20         -0.8220    -0.0430    -6.8030 ca         1 LS4      -0.349500
     17 C21          0.5240    -0.0380    -6.4840 ca         1 LS4       0.024000
     18 C22          0.9220    -0.0250    -5.1610 ca         1 LS4      -0.211000
     19 S23         -1.3240    -0.0540    -8.4920 sy         1 LS4       1.423200
     20 O24         -0.2230    -0.5800    -9.2190 o          1 LS4      -0.615300
     21 O25         -2.6430    -0.5840    -8.4990 o          1 LS4      -0.615300
     22 N26         -1.4690     1.5230    -8.9750 nu         1 LS4      -0.815800
     23 C27         -0.3720     2.3660    -8.9260 cc         1 LS4       0.737300
     24 S28         -0.2630     4.0410    -9.3700 ss         1 LS4      -0.269300
     25 C29          1.4660     4.2730    -8.9820 cc         1 LS4      -0.168400
     26 C30          1.7950     3.0350    -8.5460 cd         1 LS4       0.394200
     27 N31          0.8570     2.1060    -8.5240 nd         1 LS4      -0.781000
     28 H71          1.6730     0.0010     2.0290 hn         1 LS4       0.339500
     29 H91          4.4400    -0.0000     2.5880 ha         1 LS4       0.131000
     30 H101         6.6450    -0.0010     1.5040 ha         1 LS4       0.133000
     31 H111         6.8300    -0.0010    -0.9530 ha         1 LS4       0.133000
     32 H121         4.7960    -0.0010    -2.3450 ha         1 LS4       0.127000
     33 H151         2.4350    -0.0190    -3.2840 h4         1 LS4       0.165000
     34 H16N        -0.3210    -0.0510    -2.0860 hn         1 LS4       0.489800
     35 H181        -2.1290    -0.0320    -3.6900 ha         1 LS4       0.142000
     36 H191        -2.8260    -0.0450    -6.0530 ha         1 LS4       0.163000
     37 H211         1.2660    -0.0380    -7.2720 ha         1 LS4       0.163000
     38 H221         1.9760    -0.0210    -4.9110 ha         1 LS4       0.142000
     39 H26N        -2.3430     1.8590    -9.3290 hn         1 LS4       0.478800
     40 H291         2.0820     5.1600    -9.0720 h4         1 LS4       0.199000
     41 H301         2.8020     2.8120    -8.2160 h4         1 LS4       0.042100
@<TRIPOS>BOND
     1     1     2 2
     2     2     3 1
     3     2    10 1
     4     3     4 1
     5     3    28 1
     6     4     5 ar
     7     4     9 ar
     8     5     6 ar
     9     5    29 1
    10     6     7 ar
    11     6    30 1
    12     7     8 ar
    13     7    31 1
    14     8     9 ar
    15     8    32 1
    16     9    10 1
    17    10    11 2
    18    11    12 1
    19    11    33 1
    20    12    13 1
    21    12    34 1
    22    13    14 ar
    23    13    18 ar
    24    14    15 ar
    25    14    35 1
    26    15    16 ar
    27    15    36 1
    28    16    17 ar
    29    16    19 1
    30    17    18 ar
    31    17    37 1
    32    18    38 1
    33    19    20 2
    34    19    21 2
    35    19    22 1
    36    22    23 1
    37    22    39 1
    38    23    24 1
    39    23    27 2
    40    24    25 1
    41    25    26 2
    42    25    40 1
    43    26    27 1
    44    26    41 1
@<TRIPOS>SUBSTRUCTURE
     1 LS4         1 TEMP              0 ****  ****    0 ROOT
