@<TRIPOS>MOLECULE
LS5
   41    43     1     0     0
SMALL
bcc


@<TRIPOS>ATOM
      1 N1           0.0000     0.0000     0.0000 ns         1 LS5       0.028900
      2 C2           1.3430     0.0000     0.0000 c          1 LS5       0.626700
      3 C3           1.7990     0.0000     1.3940 cc         1 LS5      -0.227400
      4 C4           0.3130     0.0000     3.5720 ca         1 LS5      -0.050000
      5 C5          -0.9870     0.0000     4.0340 ca         1 LS5      -0.115000
      6 C6          -2.0430     0.0010     3.1380 ca         1 LS5      -0.062000
      7 C7          -1.8110     0.0000     1.7780 ca         1 LS5      -0.103000
      8 C8          -0.5060    -0.0000     1.2940 ca         1 LS5      -0.111400
      9 C9           0.5580    -0.0060     2.2040 ca         1 LS5      -0.096800
     10 O11          2.0580    -0.0000    -0.9870 o          1 LS5      -0.698500
     11 C12          3.0870    -0.0000     1.8470 c2         1 LS5       0.001000
     12 N17          4.1200    -0.0010     0.9620 nu         1 LS5      -0.140400
     13 C20          5.4380    -0.0020     1.4250 ca         1 LS5       0.079600
     14 C21          6.4930    -0.0030     0.5220 ca         1 LS5      -0.184000
     15 C22          7.7940    -0.0040     0.9850 ca         1 LS5       0.043500
     16 C23          8.0470    -0.0050     2.3440 ca         1 LS5      -0.259500
     17 C24          6.9990    -0.0100     3.2450 ca         1 LS5       0.043500
     18 C25          5.6950    -0.0040     2.7900 ca         1 LS5      -0.184000
     19 S30          9.7090    -0.0070     2.9280 sy         1 LS5       1.049200
     20 O31         10.5080    -0.3970     1.8210 o          1 LS5      -0.537800
     21 O32          9.6740    -0.6620     4.1890 o          1 LS5      -0.537800
     22 N33         10.1230     1.5630     3.2510 nu         1 LS5      -0.503100
     23 C35         10.1840     2.4810     2.2300 c2         1 LS5       0.304100
     24 N36          9.9510     2.1070     1.0030 n2         1 LS5      -0.602100
     25 N37         10.4920     3.7930     2.5020 nz         1 LS5       0.185400
     26 H1N         -0.5640     0.0000    -0.8270 hn         1 LS5       0.182500
     27 H41          1.1390    -0.0000     4.2730 ha         1 LS5       0.096000
     28 H51         -1.1820     0.0010     5.1000 ha         1 LS5       0.111000
     29 H61         -3.0620     0.0010     3.5080 ha         1 LS5       0.110000
     30 H71         -2.6440     0.0010     1.0860 ha         1 LS5       0.111000
     31 H121         3.2860    -0.0000     2.9120 h4         1 LS5       0.136000
     32 H17N         3.9360    -0.0000    -0.0220 hn         1 LS5       0.336800
     33 H211         6.2960    -0.0020    -0.5430 ha         1 LS5       0.134500
     34 H221         8.6180    -0.0020     0.2820 ha         1 LS5       0.121500
     35 H241         7.2000    -0.0100     4.3090 ha         1 LS5       0.121500
     36 H251         4.8730    -0.0070     3.4960 ha         1 LS5       0.134500
     37 H33N        10.3860     1.8300     4.1790 hn         1 LS5       0.357800
     38 H36N         9.7270     1.1520     0.8030 hn         1 LS5       0.425400
     39 H371        10.5990     4.2960     1.6430 hn         1 LS5       0.223467
     40 H372         9.7550     4.2050     3.0400 hn         1 LS5       0.223467
     41 H373        11.3460     3.8350     3.0220 hn         1 LS5       0.223467
@<TRIPOS>BOND
     1     1     2 1   
     2     1     8 1   
     3     1    26 1   
     4     2     3 1   
     5     2    10 2   
     6     3     9 1   
     7     3    11 2   
     8     4     5 ar  
     9     4     9 ar  
    10     4    27 1   
    11     5     6 ar  
    12     5    28 1   
    13     6     7 ar  
    14     6    29 1   
    15     7     8 ar  
    16     7    30 1   
    17     8     9 ar  
    18    11    12 1   
    19    11    31 1   
    20    12    13 1   
    21    12    32 1   
    22    13    14 ar  
    23    13    18 ar  
    24    14    15 ar  
    25    14    33 1   
    26    15    16 ar  
    27    15    34 1   
    28    16    17 ar  
    29    16    19 1   
    30    17    18 ar  
    31    17    35 1   
    32    18    36 1   
    33    19    20 2   
    34    19    21 2   
    35    19    22 1   
    36    22    23 1   
    37    22    37 1   
    38    23    24 2   
    39    23    25 1   
    40    24    38 1   
    41    25    39 1   
    42    25    40 1   
    43    25    41 1   
@<TRIPOS>SUBSTRUCTURE
     1 LS5         1 TEMP              0 ****  ****    0 ROOT
