@<TRIPOS>MOLECULE
molecule
   44    46     1     0     0
SMALL
bcc


@<TRIPOS>ATOM
      1 C15          0.0000     0.0000     0.0000 ca         1 LS8      -0.112800
      2 C2          -2.4040     4.4420    -1.3260 ca         1 LS8      -0.206000
      3 C3          -2.4950     5.2450    -2.4640 ca         1 LS8       0.077000
      4 C14          1.4640     0.0000     0.0000 cc         1 LS8      -0.053200
      5 C4          -3.0870     4.7400    -3.6230 ca         1 LS8      -0.155000
      6 C5          -3.5790     3.4510    -3.6410 ca         1 LS8       0.003000
      7 C12          1.3790     0.0010     2.3990 c          1 LS8       0.698700
      8 C6          -3.4880     2.6570    -2.5120 ca         1 LS8      -0.349500
      9 C1          -2.8960     3.1490    -1.3560 ca         1 LS8       0.228100
     10 C18         -1.9840     6.5830    -2.4430 cg         1 LS8       0.226800
     11 C10         -0.6830     0.0010     1.2310 ca         1 LS8       0.069600
     12 C13          2.1110     0.0000     1.1910 cd         1 LS8      -0.181400
     13 N2          -1.5880     7.6470    -2.4430 n1         1 LS8      -0.336800
     14 O           -2.8090     2.3630    -0.2500 os         1 LS8      -0.317900
     15 C           -2.1980     2.9370     0.9070 c3         1 LS8       0.122700
     16 S           -4.1190     1.0120    -2.5430 sy         1 LS8       1.406200
     17 O1          -4.9170     0.8660    -1.3770 o          1 LS8      -0.617800
     18 O2          -4.6160     0.7980    -3.8570 o          1 LS8      -0.617800
     19 C7          -2.1030    -0.0110    -1.1630 ca         1 LS8       0.085600
     20 C16         -0.7220    -0.0060    -1.1990 ca         1 LS8      -0.114000
     21 C9          -2.0750     0.0010     1.2440 ca         1 LS8      -0.174000
     22 C8          -2.7750     0.0010     0.0590 ca         1 LS8      -0.071000
     23 C17          3.6180    -0.0010     1.2280 c3         1 LS8      -0.030900
     24 O3           1.9820     0.0020     3.4580 o          1 LS8      -0.645500
     25 N1           0.0360     0.0010     2.4080 n          1 LS8      -0.336000
     26 H1          -1.9450     4.8310    -0.4240 ha         1 LS8       0.154000
     27 H2           2.0060    -0.0010    -0.9380 ha         1 LS8       0.143000
     28 H3          -3.1590     5.3610    -4.5090 ha         1 LS8       0.151000
     29 H4          -4.0380     3.0580    -4.5400 ha         1 LS8       0.169000
     30 H5          -1.3200    -0.8680     3.7440 h1         1 LS8       0.058033
     31 H6          -1.2770     0.9010     3.7670 h1         1 LS8       0.058033
     32 H7           0.0390    -0.0270     4.5010 h1         1 LS8       0.058033
     33 H8          -2.3270     2.2720     1.7520 h1         1 LS8       0.051700
     34 H9          -2.6640     3.8910     1.1240 h1         1 LS8       0.051700
     35 H10         -1.1410     3.0850     0.7210 h1         1 LS8       0.051700
     36 H11         -2.1710    -0.1250    -3.1030 hn         1 LS8       0.437800
     37 H12         -0.1970    -0.0130    -2.1470 ha         1 LS8       0.137000
     38 H13         -2.6070     0.0010     2.1880 ha         1 LS8       0.146000
     39 H14         -3.8580    -0.0230     0.0810 ha         1 LS8       0.191000
     40 H15          3.9690     0.9260     1.6630 hc         1 LS8       0.051033
     41 H16          3.9640    -0.8350     1.8260 hc         1 LS8       0.051033
     42 H17          4.0030    -0.0960     0.2200 hc         1 LS8       0.051033
     43 C11         -0.6770     0.0020     3.6880 c3         1 LS8       0.078300
     44 N           -2.8300    -0.0120    -2.3590 nu         1 LS8      -0.688500
@<TRIPOS>BOND
     1    15    14 1
     2    17    16 2
     3    14     9 1
     4    16    18 2
     5    16     8 1
     6    16    44 1
     7     9     2 ar
     8     9     8 ar
     9    20    19 ar
    10    20     1 ar
    11     2     3 ar
    12     8     6 ar
    13    44    19 1
    14     4     1 1
    15     4    12 2
    16    23    12 1
    17    19    22 ar
    18     1    11 ar
    19    12     7 1
    20    22    21 ar
    21     3    10 1
    22     3     5 ar
    23    11    21 ar
    24    11    25 1
    25     6     5 ar
    26     7    25 1
    27     7    24 2
    28    25    43 1
    29    10    13 3
    30     2    26 1
    31     4    27 1
    32     5    28 1
    33     6    29 1
    34    43    30 1
    35    43    31 1
    36    43    32 1
    37    15    33 1
    38    15    34 1
    39    15    35 1
    40    44    36 1
    41    20    37 1
    42    21    38 1
    43    22    39 1
    44    23    40 1
    45    23    41 1
    46    23    42 1
@<TRIPOS>SUBSTRUCTURE
     1 LS8         1 TEMP              0 ****  ****    0 ROOT
