@<TRIPOS>MOLECULE
LS8
   44    46     1     0     0
SMALL
bcc


@<TRIPOS>ATOM
      1 C15          0.0000     0.0000     0.0000 ca         1 LS8      -0.101800
      2 C2          -2.4040     4.4420    -1.3260 ca         1 LS8      -0.215000
      3 C3          -2.4950     5.2450    -2.4640 ca         1 LS8       0.131000
      4 C14          1.4640     0.0000     0.0000 cc         1 LS8      -0.028200
      5 C4          -3.0870     4.7400    -3.6230 ca         1 LS8      -0.150000
      6 C5          -3.5790     3.4510    -3.6410 ca         1 LS8       0.049000
      7 C12          1.3790     0.0010     2.3990 c          1 LS8       0.606700
      8 C6          -3.4880     2.6570    -2.5120 ca         1 LS8      -0.216500
      9 C1          -2.8960     3.1490    -1.3560 ca         1 LS8       0.246100
     10 C18         -1.9840     6.5830    -2.4430 cg         1 LS8       0.211800
     11 C10         -0.6830     0.0010     1.2310 ca         1 LS8      -0.086400
     12 C13          2.1110     0.0000     1.1910 cd         1 LS8      -0.189400
     13 N2          -1.5880     7.6470    -2.4430 n1         1 LS8      -0.352800
     14 O           -2.8090     2.3630    -0.2500 os         1 LS8      -0.292900
     15 C           -2.1980     2.9370     0.9070 c3         1 LS8       0.223700
     16 S           -4.1190     1.0120    -2.5430 sy         1 LS8       1.035200
     17 O1          -4.9170     0.8660    -1.3770 o          1 LS8      -0.572300
     18 O2          -4.6160     0.7980    -3.8570 o          1 LS8      -0.572300
     19 C7          -2.1030    -0.0110    -1.1630 ca         1 LS8       0.016600
     20 C16         -0.7220    -0.0060    -1.1990 ca         1 LS8      -0.098000
     21 C9          -2.0750     0.0010     1.2440 ca         1 LS8      -0.147000
     22 C8          -2.7750     0.0010     0.0590 ca         1 LS8      -0.070000
     23 C17          3.6180    -0.0010     1.2280 c3         1 LS8       0.082100
     24 O3           1.9820     0.0020     3.4580 o          1 LS8      -0.693500
     25 N1           0.0360     0.0010     2.4080 n          1 LS8       0.086000
     26 H1          -1.9450     4.8310    -0.4240 ha         1 LS8       0.138000
     27 H2           2.0060    -0.0010    -0.9380 ha         1 LS8       0.114000
     28 H3          -3.1590     5.3610    -4.5090 ha         1 LS8       0.124000
     29 H4          -4.0380     3.0580    -4.5400 ha         1 LS8       0.136000
     30 H5          -1.3200    -0.8680     3.7440 h1         1 LS8       0.029033
     31 H6          -1.2770     0.9010     3.7670 h1         1 LS8       0.029033
     32 H7           0.0390    -0.0270     4.5010 h1         1 LS8       0.029033
     33 H8          -2.3270     2.2720     1.7520 h1         1 LS8       0.009700
     34 H9          -2.6640     3.8910     1.1240 h1         1 LS8       0.009700
     35 H10         -1.1410     3.0850     0.7210 h1         1 LS8       0.009700
     36 H11         -2.1710    -0.1250    -3.1030 hn         1 LS8       0.324800
     37 H12         -0.1970    -0.0130    -2.1470 ha         1 LS8       0.112000
     38 H13         -2.6070     0.0010     2.1880 ha         1 LS8       0.124000
     39 H14         -3.8580    -0.0230     0.0810 ha         1 LS8       0.172000
     40 H15          3.9690     0.9260     1.6630 hc         1 LS8       0.012367
     41 H16          3.9640    -0.8350     1.8260 hc         1 LS8       0.012367
     42 H17          4.0030    -0.0960     0.2200 hc         1 LS8       0.012367
     43 C11         -0.6770     0.0020     3.6880 c3         1 LS8       0.035300
     44 N           -2.8300    -0.0120    -2.3590 nu         1 LS8      -0.335500
@<TRIPOS>BOND
     1     1     4 1   
     2     1    11 ar  
     3     1    20 ar  
     4     2     3 ar  
     5     2     9 ar  
     6     2    26 1   
     7     3     5 ar  
     8     3    10 1   
     9     4    12 2   
    10     4    27 1   
    11     5     6 ar  
    12     5    28 1   
    13     6     8 ar  
    14     6    29 1   
    15     7    12 1   
    16     7    24 2   
    17     7    25 1   
    18     8     9 ar  
    19     8    16 1   
    20     9    14 1   
    21    10    13 3   
    22    11    21 ar  
    23    11    25 1   
    24    12    23 1   
    25    14    15 1   
    26    15    33 1   
    27    15    34 1   
    28    15    35 1   
    29    16    17 2   
    30    16    18 2   
    31    16    44 1   
    32    19    20 ar  
    33    19    22 ar  
    34    19    44 1   
    35    20    37 1   
    36    21    22 ar  
    37    21    38 1   
    38    22    39 1   
    39    23    40 1   
    40    23    41 1   
    41    23    42 1   
    42    25    43 1   
    43    30    43 1   
    44    31    43 1   
    45    32    43 1   
    46    36    44 1   
@<TRIPOS>SUBSTRUCTURE
     1 LS8         1 TEMP              0 ****  ****    0 ROOT
