@<TRIPOS>MOLECULE
molecule
   17    18     1     0     0
SMALL
bcc


@<TRIPOS>ATOM
      1 C4           0.0000     0.0000     0.0000 ca         1 LSA      -0.111000
      2 C5           1.3870     0.0000     0.0000 ca         1 LSA      -0.002000
      3 C6           2.0650     0.0000     1.1860 ca         1 LSA      -0.255500
      4 C7           2.3310     0.0000     3.5570 c          1 LSA       0.685100
      5 C3          -0.6820     0.0000     1.2040 ca         1 LSA      -0.097000
      6 S10          3.7800    -0.0000     1.6280 sy         1 LSA       1.389900
      7 N9           3.6470     0.0000     3.2950 ns         1 LSA      -0.634300
      8 O8           1.9210     0.0000     4.7020 o          1 LSA      -0.573500
      9 C1           1.4020     0.0000     2.4200 ca         1 LSA      -0.123600
     10 C2          -0.0040     0.0000     2.4010 ca         1 LSA      -0.050000
     11 O12          4.3210     1.2560     1.2430 o          1 LSA      -0.603300
     12 O11          4.3210    -1.2560     1.2430 o          1 LSA      -0.603300
     13 H4          -0.5450    -0.0000    -0.9360 ha         1 LSA       0.146000
     14 H5           1.9310     0.0000    -0.9370 ha         1 LSA       0.146000
     15 H3          -1.7650    -0.0000     1.2040 ha         1 LSA       0.145000
     16 HN9          4.3930     0.0530     3.9590 hn         1 LSA       0.383500
     17 H2          -0.5550    -0.0000     3.3330 ha         1 LSA       0.157000
@<TRIPOS>BOND
     1     1     2 ar
     2     1     5 ar
     3     1    13 1
     4     2     3 ar
     5     2    14 1
     6     3     6 1
     7     3     9 ar
     8     4     7 1
     9     4     8 2
    10     4     9 1
    11     5    10 ar
    12     5    15 1
    13     6     7 1
    14     6    11 2
    15     6    12 2
    16     7    16 1
    17     9    10 ar
    18    10    17 1
@<TRIPOS>SUBSTRUCTURE
     1 LSA         1 TEMP              0 ****  ****    0 ROOT
