@<TRIPOS>MOLECULE
molecule
   87    86     1     0     0
SMALL
bcc


@<TRIPOS>ATOM
      1 C1           0.0000     0.0000     0.0000 c3         1 LSC      -0.092100
      2 C2           1.5300     0.0000     0.0000 c3         1 LSC      -0.084400
      3 C3           2.0400     0.0000     1.4420 c3         1 LSC      -0.081400
      4 C4           3.5700    -0.0000     1.4420 c3         1 LSC      -0.082400
      5 C5           4.0810     0.0000     2.8840 c3         1 LSC      -0.081400
      6 C6           5.6110     0.0010     2.8840 c3         1 LSC      -0.082400
      7 C7           6.1200     0.0010     4.3270 c3         1 LSC      -0.077400
      8 C8           7.6500     0.0010     4.3270 c3         1 LSC      -0.048200
      9 C9           8.1530     0.0010     5.7480 c2         1 LSC      -0.177200
     10 C10          8.9850    -0.9280     6.1480 c2         1 LSC      -0.176200
     11 C11          9.4870    -0.9280     7.5680 c3         1 LSC      -0.048200
     12 C12          9.1920    -2.2840     8.2140 c3         1 LSC      -0.077400
     13 C13          9.7020    -2.2840     9.6570 c3         1 LSC      -0.083400
     14 C14          9.4070    -3.6390    10.3020 c3         1 LSC      -0.079400
     15 C15          9.9170    -3.6390    11.7450 c3         1 LSC      -0.084400
     16 C16          9.6220    -4.9940    12.3900 c3         1 LSC      -0.072400
     17 C17         10.1330    -4.9940    13.8320 c3         1 LSC      -0.127400
     18 C18          9.8420    -6.3290    14.4680 c          1 LSC       0.630100
     19 O19         10.2030    -6.5590    15.7400 os         1 LSC      -0.432900
     20 C20          9.8920    -7.8680    16.2870 c3         1 LSC       0.134400
     21 C21         10.3750    -7.9420    17.7370 c3         1 LSC       0.137100
     22 C22         10.1600    -9.3590    18.2730 c3         1 LSC       0.220400
     23 O23         10.7160    -9.4610    19.5860 os         1 LSC      -0.610200
     24 P24         10.6700   -10.8160    20.4550 p5         1 LSC       1.330800
     25 O25          9.1420   -11.1750    20.8090 o          1 LSC      -0.794000
     26 C30         11.7360   -11.6600    22.7560 c3         1 LSC       0.201400
     27 C31         12.5530   -11.1230    23.9320 c3         1 LSC       0.093800
     28 N32         11.7500   -10.1490    24.6820 n4         1 LSC      -0.568800
     29 O32          9.2840    -7.1920    13.8320 o          1 LSC      -0.550000
     30 C33         11.4890    -8.9750    23.8370 c3         1 LSC       0.097433
     31 O33          9.6370    -7.0150    18.5340 oh         1 LSC      -0.593800
     32 C34         10.4750   -10.7630    25.0740 c3         1 LSC       0.097433
     33 O34         11.2700   -11.9230    19.6760 o          1 LSC      -0.794000
     34 C35         12.4840    -9.7320    25.8850 c3         1 LSC       0.097433
     35 O35         11.5010   -10.6070    21.8190 os         1 LSC      -0.614200
     36 H1          -0.3610     0.8870     0.5060 hc         1 LSC       0.032367
     37 H1A         -0.3610    -0.0050    -1.0210 hc         1 LSC       0.032367
     38 H1B         -0.3610    -0.8820     0.5150 hc         1 LSC       0.032367
     39 H2           1.8910    -0.8850    -0.5110 hc         1 LSC       0.039700
     40 H2A          1.8910     0.8850    -0.5110 hc         1 LSC       0.039700
     41 H3           1.6790     0.8850     1.9530 hc         1 LSC       0.041200
     42 H3A          1.6790    -0.8850     1.9530 hc         1 LSC       0.041200
     43 H4           3.9310     0.8840     0.9310 hc         1 LSC       0.040700
     44 H4A          3.9310    -0.8840     0.9310 hc         1 LSC       0.040700
     45 H5           3.7200     0.8840     3.3950 hc         1 LSC       0.041200
     46 H5A          3.7200    -0.8850     3.3950 hc         1 LSC       0.041200
     47 H6           5.9720    -0.8840     2.3730 hc         1 LSC       0.041200
     48 H6A          5.9710     0.8850     2.3730 hc         1 LSC       0.041200
     49 H7           5.7590     0.8850     4.8370 hc         1 LSC       0.043700
     50 H7A          5.7590    -0.8840     4.8380 hc         1 LSC       0.043700
     51 H8           8.0120    -0.8840     3.8160 hc         1 LSC       0.045200
     52 H8A          8.0120     0.8850     3.8160 hc         1 LSC       0.045200
     53 H9           7.8260     0.7690     6.4380 ha         1 LSC       0.123000
     54 H10          9.3110    -1.6960     5.4580 ha         1 LSC       0.124000
     55 H11         10.5560    -0.7500     7.5730 hc         1 LSC       0.045200
     56 H11A         8.9890    -0.1460     8.1280 hc         1 LSC       0.045200
     57 H12          9.6910    -3.0660     7.6550 hc         1 LSC       0.044200
     58 H12A         8.1240    -2.4610     8.2090 hc         1 LSC       0.044200
     59 H13         10.7710    -2.1070     9.6620 hc         1 LSC       0.040200
     60 H13A         9.2040    -1.5020    10.2160 hc         1 LSC       0.040200
     61 H14          9.9060    -4.4210     9.7420 hc         1 LSC       0.045200
     62 H14A         8.3390    -3.8170    10.2960 hc         1 LSC       0.045200
     63 H15          9.4180    -2.8560    12.3040 hc         1 LSC       0.039200
     64 H15A        10.9860    -3.4610    11.7500 hc         1 LSC       0.039200
     65 H16         10.1210    -5.7770    11.8310 hc         1 LSC       0.059200
     66 H16A         8.5540    -5.1720    12.3860 hc         1 LSC       0.059200
     67 H17          9.6350    -4.2110    14.3920 hc         1 LSC       0.068700
     68 H17A        11.2020    -4.8170    13.8370 hc         1 LSC       0.068700
     69 H20         10.3890    -8.6320    15.7010 h1         1 LSC       0.062200
     70 H20A         8.8210    -8.0280    16.2550 h1         1 LSC       0.062200
     71 H21         11.4290    -7.6960    17.7800 h1         1 LSC       0.042700
     72 H22          9.0990    -9.5730    18.3130 h1         1 LSC       0.050700
     73 H22A        10.6470   -10.0710    17.6180 h1         1 LSC       0.050700
     74 H30         10.7880   -12.0390    23.1180 h1         1 LSC       0.070700
     75 H30A        12.2830   -12.4590    22.2710 h1         1 LSC       0.070700
     76 H31         12.8290   -11.9420    24.5840 hx         1 LSC       0.092700
     77 H31A        13.4490   -10.6410    23.5580 hx         1 LSC       0.092700
     78 H33         11.3090    -8.1110    24.4650 hx         1 LSC       0.095589
     79 H33A        12.3480    -8.7880    23.2040 hx         1 LSC       0.095589
     80 H33B        10.6180    -9.1610    23.2200 hx         1 LSC       0.095589
     81 HO33        10.2300    -6.3940    18.9240 ho         1 LSC       0.398000
     82 H34          9.7960   -10.7560    24.2300 hx         1 LSC       0.095589
     83 H34A        10.6480   -11.7850    25.3890 hx         1 LSC       0.095589
     84 H34B        10.0400   -10.2020    25.8920 hx         1 LSC       0.095589
     85 H35         13.4270    -9.2850    25.5960 hx         1 LSC       0.095589
     86 H35A        11.8940    -9.0080    26.4350 hx         1 LSC       0.095589
     87 H35B        12.6700   -10.5960    26.5120 hx         1 LSC       0.095589
@<TRIPOS>BOND
     1     2     1 1
     2     1    36 1
     3     1    37 1
     4     1    38 1
     5     3     2 1
     6     2    39 1
     7     2    40 1
     8     4     3 1
     9     3    41 1
    10     3    42 1
    11     5     4 1
    12     4    43 1
    13     4    44 1
    14     6     5 1
    15     5    45 1
    16     5    46 1
    17     7     6 1
    18     6    47 1
    19     6    48 1
    20     8     7 1
    21     7    49 1
    22     7    50 1
    23     9     8 1
    24     8    51 1
    25     8    52 1
    26    10     9 2
    27     9    53 1
    28    11    10 1
    29    10    54 1
    30    11    12 1
    31    11    55 1
    32    11    56 1
    33    13    12 1
    34    12    57 1
    35    12    58 1
    36    14    13 1
    37    13    59 1
    38    13    60 1
    39    15    14 1
    40    14    61 1
    41    14    62 1
    42    16    15 1
    43    15    63 1
    44    15    64 1
    45    17    16 1
    46    16    65 1
    47    16    66 1
    48    18    17 1
    49    17    67 1
    50    17    68 1
    51    19    18 1
    52    18    29 2
    53    20    19 1
    54    21    20 1
    55    20    69 1
    56    20    70 1
    57    22    21 1
    58    31    21 1
    59    21    71 1
    60    23    22 1
    61    22    72 1
    62    22    73 1
    63    24    23 1
    64    35    24 1
    65    33    24 1
    66    24    25 1
    67    27    26 1
    68    26    35 1
    69    26    74 1
    70    26    75 1
    71    28    27 1
    72    27    76 1
    73    27    77 1
    74    30    28 1
    75    34    28 1
    76    28    32 1
    77    30    78 1
    78    30    79 1
    79    30    80 1
    80    31    81 1
    81    32    82 1
    82    32    83 1
    83    32    84 1
    84    34    85 1
    85    34    86 1
    86    34    87 1
@<TRIPOS>SUBSTRUCTURE
     1 LSC         1 TEMP              0 ****  ****    0 ROOT
