@<TRIPOS>MOLECULE
LSC
   87    88     1     0     0
SMALL
bcc


@<TRIPOS>ATOM
      1 C1           0.0000     0.0000     0.0000 c3         1 LSC      -0.112000
      2 C2           1.5300     0.0000     0.0000 c3         1 LSC      -0.107000
      3 C3           2.0400     0.0000     1.4420 c3         1 LSC      -0.108000
      4 C4           3.5700    -0.0000     1.4420 c3         1 LSC      -0.108000
      5 C5           4.0810     0.0000     2.8840 c3         1 LSC      -0.107000
      6 C6           5.6110     0.0010     2.8840 c3         1 LSC      -0.111000
      7 C7           6.1200     0.0010     4.3270 c3         1 LSC      -0.138000
      8 C8           7.6500     0.0010     4.3270 DU         1 LSC       0.017000
      9 C9           8.1530     0.0010     5.7480 c2         1 LSC      -0.133000
     10 C10          8.9850    -0.9280     6.1480 c2         1 LSC      -0.129000
     11 C11          9.4870    -0.9280     7.5680 DU         1 LSC       0.015000
     12 C12          9.1920    -2.2840     8.2140 c3         1 LSC      -0.138000
     13 C13          9.7020    -2.2840     9.6570 c3         1 LSC      -0.111000
     14 C14          9.4070    -3.6390    10.3020 c3         1 LSC      -0.105000
     15 C15          9.9170    -3.6390    11.7450 c3         1 LSC      -0.109000
     16 C16          9.6220    -4.9940    12.3900 c3         1 LSC      -0.099000
     17 C17         10.1330    -4.9940    13.8320 c3         1 LSC      -0.100000
     18 C18          9.8420    -6.3290    14.4680 c2         1 LSC       0.363000
     19 O19         10.2030    -6.5590    15.7400 os         1 LSC      -0.257000
     20 C20          9.8920    -7.8680    16.2870 c3         1 LSC       0.054000
     21 C21         10.3750    -7.9420    17.7370 c3         1 LSC       0.046000
     22 C22         10.1600    -9.3590    18.2730 c3         1 LSC       0.159000
     23 O23         10.7160    -9.4610    19.5860 os         1 LSC      -0.672000
     24 P24         10.6700   -10.8160    20.4550 p5         1 LSC       1.388000
     25 O25          9.1420   -11.1750    20.8090 o          1 LSC      -0.635000
     26 C30         11.7360   -11.6600    22.7560 c3         1 LSC       0.139000
     27 C31         12.5530   -11.1230    23.9320 c3         1 LSC      -0.277000
     28 N32         11.7500   -10.1490    24.6820 n4         1 LSC       0.697000
     29 O32          9.2840    -7.1920    13.8320 o          1 LSC      -0.399000
     30 C33         11.4890    -8.9750    23.8370 c3         1 LSC      -0.265667
     31 O33          9.6370    -7.0150    18.5340 oh         1 LSC      -0.304000
     32 C34         10.4750   -10.7630    25.0740 c3         1 LSC      -0.265667
     33 O34         11.2700   -11.9230    19.6760 o          1 LSC      -0.635000
     34 C35         12.4840    -9.7320    25.8850 c3         1 LSC      -0.265667
     35 O35         11.5010   -10.6070    21.8190 os         1 LSC      -0.689000
     36 H1          -0.3610     0.8820     0.5150 hc         1 LSC       0.039333
     37 H1A         -0.3610    -0.8870     0.5070 hc         1 LSC       0.039333
     38 H1B         -0.3610     0.0050    -1.0210 hc         1 LSC       0.039333
     39 H2           1.8910     0.8850    -0.5110 hc         1 LSC       0.051000
     40 H2A          1.8910    -0.8850    -0.5110 hc         1 LSC       0.051000
     41 H3           1.6790     0.8850     1.9530 hc         1 LSC       0.054500
     42 H3A          1.6790    -0.8850     1.9530 hc         1 LSC       0.054500
     43 H4           3.9310     0.8840     0.9310 hc         1 LSC       0.053500
     44 H4A          3.9310    -0.8840     0.9310 hc         1 LSC       0.053500
     45 H5           3.7200     0.8840     3.3950 hc         1 LSC       0.055000
     46 H5A          3.7200    -0.8850     3.3950 hc         1 LSC       0.055000
     47 H6           5.9710     0.8850     2.3730 hc         1 LSC       0.052000
     48 H6A          5.9720    -0.8840     2.3730 hc         1 LSC       0.052000
     49 H7           5.7590     0.8850     4.8370 hc         1 LSC       0.063500
     50 H7A          5.7590    -0.8840     4.8380 hc         1 LSC       0.063500
     51 H8           8.0120    -0.8840     3.8160 ha         1 LSC       0.054500
     52 H8A          8.0110     0.8850     3.8160 ha         1 LSC       0.054500
     53 H9           8.7240     0.3520     4.8960 DU         1 LSC       0.021000
     54 H10          9.7640    -0.2750     6.5210 DU         1 LSC       0.022000
     55 H11          8.9890    -0.1460     8.1280 ha         1 LSC       0.055000
     56 H11A        10.5560    -0.7510     7.5730 ha         1 LSC       0.055000
     57 H12          9.6910    -3.0660     7.6550 hc         1 LSC       0.064000
     58 H12A         8.1240    -2.4610     8.2090 hc         1 LSC       0.064000
     59 H13         10.7710    -2.1070     9.6620 hc         1 LSC       0.050500
     60 H13A         9.2040    -1.5020    10.2160 hc         1 LSC       0.050500
     61 H14          8.3390    -3.8170    10.2960 hc         1 LSC       0.057500
     62 H14A         9.9060    -4.4210     9.7420 hc         1 LSC       0.057500
     63 H15          9.4180    -2.8560    12.3040 hc         1 LSC       0.050500
     64 H15A        10.9860    -3.4610    11.7500 hc         1 LSC       0.050500
     65 H16          8.5540    -5.1720    12.3860 hc         1 LSC       0.069500
     66 H16A        10.1210    -5.7770    11.8310 hc         1 LSC       0.069500
     67 H17         11.2020    -4.8170    13.8370 hc         1 LSC       0.072000
     68 H17A         9.6350    -4.2110    14.3920 hc         1 LSC       0.072000
     69 H20         10.3890    -8.6320    15.7010 h1         1 LSC       0.060500
     70 H20A         8.8210    -8.0280    16.2550 h1         1 LSC       0.060500
     71 H21         11.4290    -7.6960    17.7800 h1         1 LSC       0.042000
     72 H22          9.0990    -9.5730    18.3130 h1         1 LSC       0.038500
     73 H22A        10.6470   -10.0710    17.6180 h1         1 LSC       0.038500
     74 H30         10.7880   -12.0390    23.1190 h1         1 LSC       0.060000
     75 H30A        12.2830   -12.4590    22.2710 h1         1 LSC       0.060000
     76 H31         12.8290   -11.9420    24.5840 hx         1 LSC       0.103500
     77 H31A        13.4490   -10.6410    23.5580 hx         1 LSC       0.103500
     78 H33         11.3420    -8.1040    24.4650 hx         1 LSC       0.110111
     79 H33A        10.5990    -9.1470    23.2450 hx         1 LSC       0.110111
     80 H33B        12.3340    -8.8080    23.1800 hx         1 LSC       0.110111
     81 HO33        10.2140    -6.3360    18.8420 ho         1 LSC       0.179000
     82 H34         10.6460   -11.7890    25.3780 hx         1 LSC       0.110111
     83 H34A         9.7920   -10.7450    24.2340 hx         1 LSC       0.110111
     84 H34B        10.0460   -10.2100    25.9000 hx         1 LSC       0.110111
     85 H35         12.6610   -10.5940    26.5170 hx         1 LSC       0.110111
     86 H35A        11.8990    -9.0000    26.4290 hx         1 LSC       0.110111
     87 H35B        13.4320    -9.2950    25.5970 hx         1 LSC       0.110111
@<TRIPOS>BOND
     1     1     2 1   
     2     1    36 1   
     3     1    37 1   
     4     1    38 1   
     5     2     3 1   
     6     2    39 1   
     7     2    40 1   
     8     3     4 1   
     9     3    41 1   
    10     3    42 1   
    11     4     5 1   
    12     4    43 1   
    13     4    44 1   
    14     5     6 1   
    15     5    45 1   
    16     5    46 1   
    17     6     7 1   
    18     6    47 1   
    19     6    48 1   
    20     7     8 1   
    21     7    49 1   
    22     7    50 1   
    23     8     9 1   
    24     8    51 1   
    25     8    52 1   
    26     8    53 1   
    27     9    10 1   
    28     9    53 1   
    29    10    11 1   
    30    10    54 1   
    31    11    12 1   
    32    11    54 1   
    33    11    55 1   
    34    11    56 1   
    35    12    13 1   
    36    12    57 1   
    37    12    58 1   
    38    13    14 1   
    39    13    59 1   
    40    13    60 1   
    41    14    15 1   
    42    14    61 1   
    43    14    62 1   
    44    15    16 1   
    45    15    63 1   
    46    15    64 1   
    47    16    17 1   
    48    16    65 1   
    49    16    66 1   
    50    17    18 1   
    51    17    67 1   
    52    17    68 1   
    53    18    19 1   
    54    18    29 1   
    55    19    20 1   
    56    20    21 1   
    57    20    69 1   
    58    20    70 1   
    59    21    22 1   
    60    21    31 1   
    61    21    71 1   
    62    22    23 1   
    63    22    72 1   
    64    22    73 1   
    65    23    24 1   
    66    24    25 1   
    67    24    33 1   
    68    24    35 1   
    69    26    27 1   
    70    26    35 1   
    71    26    74 1   
    72    26    75 1   
    73    27    28 1   
    74    27    76 1   
    75    27    77 1   
    76    28    30 1   
    77    28    32 1   
    78    28    34 1   
    79    30    78 1   
    80    30    79 1   
    81    30    80 1   
    82    31    81 1   
    83    32    82 1   
    84    32    83 1   
    85    32    84 1   
    86    34    85 1   
    87    34    86 1   
    88    34    87 1   
@<TRIPOS>SUBSTRUCTURE
     1 LSC         1 TEMP              0 ****  ****    0 ROOT
