@<TRIPOS>MOLECULE
molecule
   66    67     1     0     0
SMALL
bcc


@<TRIPOS>ATOM
      1 O4           0.0000     0.0000     0.0000 oh         1 LSE      -0.599800
      2 C9           1.4290     0.0000     0.0000 c3         1 LSE       0.097100
      3 C10          1.9420     0.0000     1.4430 c3         1 LSE       0.115100
      4 O3           1.5290    -1.2020     2.0970 oh         1 LSE      -0.556800
      5 C8           1.9400     1.2540    -0.7150 c3         1 LSE       0.330900
      6 O5           1.5120     1.2330    -2.0780 os         1 LSE      -0.405600
      7 C13          1.8420     2.4160    -2.8080 c3         1 LSE       0.153400
      8 C14          1.3380     2.2840    -4.2480 c3         1 LSE      -0.258400
      9 Si           1.7680     3.8260    -5.2000 Si         1 LSE       0.531000
     10 C18          3.6160     4.0570    -5.2080 c3         1 LSE      -0.273433
     11 C17          1.1560     3.6650    -6.9520 c3         1 LSE      -0.273433
     12 C16          0.9610     5.2990    -4.3930 c3         1 LSE      -0.273433
     13 O2           3.3680     1.2810    -0.6640 os         1 LSE      -0.435600
     14 C7           3.9040     1.3290     0.6600 c3         1 LSE       0.165100
     15 C11          5.4310     1.3840     0.5910 c3         1 LSE       0.092700
     16 SE6          5.9870     3.0620    -0.2550 ss         1 LSE      -0.462200
     17 C12          7.9380     2.8730    -0.2140 c3         1 LSE       0.070000
     18 C6           3.4710     0.0790     1.4300 c3         1 LSE       0.121100
     19 O1           3.9570     0.1520     2.7720 os         1 LSE      -0.388600
     20 C5           4.2290    -1.1200     3.3620 c3         1 LSE       0.351900
     21 O            3.0100    -1.8540     3.4960 os         1 LSE      -0.374600
     22 C4           4.8560    -0.9190     4.7450 c3         1 LSE       0.126100
     23 O7           6.1030    -0.2350     4.6080 oh         1 LSE      -0.604800
     24 C3           5.0890    -2.2860     5.3950 c3         1 LSE       0.111100
     25 O8           5.6060    -2.1050     6.7150 oh         1 LSE      -0.595800
     26 C2           3.7570    -3.0390     5.4660 c3         1 LSE       0.094100
     27 O9           2.8470    -2.3220     6.3010 oh         1 LSE      -0.576800
     28 C1           3.1720    -3.1590     4.0550 c3         1 LSE       0.144100
     29 C            1.8130    -3.8570     4.1250 c3         1 LSE       0.153400
     30 O10          1.3210    -4.0740     2.8010 oh         1 LSE      -0.589800
     31 H1          -0.3140    -0.7200    -0.5210 ho         1 LSE       0.414000
     32 H2           1.7950    -0.8810    -0.5120 h1         1 LSE       0.066700
     33 H3           1.5410     0.8590     1.9680 h1         1 LSE       0.054700
     34 H4           0.6260    -1.1230     2.3570 ho         1 LSE       0.408000
     35 H5           1.5470     2.1340    -0.2210 h2         1 LSE       0.041700
     36 H6           2.9170     2.5500    -2.8130 h1         1 LSE       0.034700
     37 H7           1.3730     3.2730    -2.3390 h1         1 LSE       0.034700
     38 H8           0.2630     2.1500    -4.2430 hc         1 LSE       0.063200
     39 H9           1.8070     1.4280    -4.7170 hc         1 LSE       0.063200
     40 H10          4.0990     3.1020    -5.3720 hc         1 LSE       0.049144
     41 H11          3.9340     4.4630    -4.2540 hc         1 LSE       0.049144
     42 H12          3.8910     4.7420    -6.0010 hc         1 LSE       0.049144
     43 H13          0.0820     3.5210    -6.9480 hc         1 LSE       0.049144
     44 H14          1.6320     2.8140    -7.4240 hc         1 LSE       0.049144
     45 H15          1.3970     4.5660    -7.5030 hc         1 LSE       0.049144
     46 H16          0.9740     6.1380    -5.0780 hc         1 LSE       0.049144
     47 H17          1.5030     5.5600    -3.4920 hc         1 LSE       0.049144
     48 H18         -0.0640     5.0560    -4.1400 hc         1 LSE       0.049144
     49 H19          3.5290     2.2100     1.1670 h1         1 LSE       0.063700
     50 H20          5.8400     1.3320     1.5930 h1         1 LSE       0.075700
     51 H21          5.7960     0.5480     0.0080 h1         1 LSE       0.075700
     52 H22          8.2760     2.8370     0.8150 h1         1 LSE       0.055033
     53 H23          8.3930     3.7190    -0.7140 h1         1 LSE       0.055033
     54 H24          8.2230     1.9580    -0.7200 h1         1 LSE       0.055033
     55 H25          3.8720    -0.8010     0.9420 h1         1 LSE       0.063700
     56 H26          4.9150    -1.6750     2.7340 h2         1 LSE       0.031700
     57 H27          4.1840    -0.3360     5.3630 h1         1 LSE       0.086700
     58 H28          6.2730     0.2690     5.3860 ho         1 LSE       0.417000
     59 H29          5.7940    -2.8530     4.7990 h1         1 LSE       0.046700
     60 H30          6.3190    -2.7060     6.8590 ho         1 LSE       0.404000
     61 H31          3.9250    -4.0290     5.8720 h1         1 LSE       0.036700
     62 H32          2.6600    -2.8310     7.0720 ho         1 LSE       0.403000
     63 H33          3.8480    -3.7350     3.4340 h1         1 LSE       0.045700
     64 H34          1.1150    -3.2340     4.6720 h1         1 LSE       0.037700
     65 H35          1.9210    -4.8090     4.6310 h1         1 LSE       0.037700
     66 H36          0.8030    -4.8620     2.7830 ho         1 LSE       0.395000
@<TRIPOS>BOND
     1    25    24 1
     2    24    22 1
     3    24    26 1
     4    23    22 1
     5    27    26 1
     6    22    20 1
     7    26    28 1
     8    28    21 1
     9    28    29 1
    10    20    21 1
    11    20    19 1
    12    17    16 1
    13    19    18 1
    14    29    30 1
    15    15    16 1
    16    15    14 1
    17    18    14 1
    18    18     3 1
    19    14    13 1
    20     4     3 1
    21     3     2 1
    22    13     5 1
    23     2     5 1
    24     2     1 1
    25     5     6 1
    26     6     7 1
    27     7     8 1
    28    12     9 1
    29     8     9 1
    30    11     9 1
    31     9    10 1
    32     1    31 1
    33     2    32 1
    34     3    33 1
    35     4    34 1
    36     5    35 1
    37     7    36 1
    38     7    37 1
    39     8    38 1
    40     8    39 1
    41    10    40 1
    42    10    41 1
    43    10    42 1
    44    11    43 1
    45    11    44 1
    46    11    45 1
    47    12    46 1
    48    12    47 1
    49    12    48 1
    50    14    49 1
    51    15    50 1
    52    15    51 1
    53    17    52 1
    54    17    53 1
    55    17    54 1
    56    18    55 1
    57    20    56 1
    58    22    57 1
    59    23    58 1
    60    24    59 1
    61    25    60 1
    62    26    61 1
    63    27    62 1
    64    28    63 1
    65    29    64 1
    66    29    65 1
    67    30    66 1
@<TRIPOS>SUBSTRUCTURE
     1 LSE         1 TEMP              0 ****  ****    0 ROOT
