@<TRIPOS>MOLECULE
LSE
   66    67     1     0     0
SMALL
bcc


@<TRIPOS>ATOM
      1 O4         -0.4580    0.6660    0.2030 oh        1 LSE     -0.582800
      2 C9          0.9020    0.3050    0.0510 c3        1 LSE      0.129100
      3 C10         1.4650    0.0660    1.4600 c3        1 LSE      0.144100
      4 O3          0.9430   -1.1730    1.9030 oh        1 LSE     -0.593800
      5 C8          1.6440    1.4760   -0.6310 c3        1 LSE      0.297900
      6 O5          1.3430    1.3950   -2.0040 os        1 LSE     -0.419600
      7 C13         1.8020    2.5230   -2.7650 c3        1 LSE      0.153400
      8 C14         1.3150    2.3200   -4.1740 c3        1 LSE     -0.282400
      9 SI          1.9280    3.6650   -5.2680 Si        1 LSE      0.629000
     10 C18         3.7550    3.6460   -5.3230 c3        1 LSE     -0.297767
     11 C17         1.2650    3.3810   -6.9480 c3        1 LSE     -0.297767
     12 C16         1.3490    5.2870   -4.6510 c3        1 LSE     -0.297767
     13 O2          3.0600    1.3190   -0.6110 os        1 LSE     -0.438600
     14 C7          3.5850    1.2390    0.7160 c3        1 LSE      0.153100
     15 C11         5.0950    1.1740    0.5640 c3        1 LSE     -0.015300
     16 SE6         5.8120    2.3280    1.7030 ss        1 LSE     -0.292200
     17 C12         7.4780    2.3940    1.1600 c3        1 LSE     -0.044000
     18 C6          3.0040   -0.0070    1.4090 c3        1 LSE      0.079100
     19 O1          3.4690   -0.0030    2.7630 os        1 LSE     -0.411600
     20 C5          4.1850   -1.1570    3.1520 c3        1 LSE      0.311900
     21 O           3.1350   -2.0930    3.3390 os        1 LSE     -0.449600
     22 C4          4.9080   -0.8050    4.4650 c3        1 LSE      0.090100
     23 O7          6.0650   -0.0330    4.2050 oh        1 LSE     -0.620800
     24 C3          5.3880   -2.0950    5.1470 c3        1 LSE      0.111100
     25 O8          5.8770   -1.8200    6.4490 oh        1 LSE     -0.606800
     26 C2          4.2180   -3.0800    5.3190 c3        1 LSE      0.123100
     27 O9          3.2510   -2.5880    6.2280 oh        1 LSE     -0.590800
     28 C1          3.5380   -3.3120    3.9630 c3        1 LSE      0.114100
     29 C           2.2460   -4.1250    4.1060 c3        1 LSE      0.143400
     30 O10         1.6790   -4.3920    2.8430 oh        1 LSE     -0.601800
     31 H1         -0.8460    0.6320   -0.6810 ho        1 LSE      0.416000
     32 H2          1.0040   -0.6280   -0.5670 h1        1 LSE      0.079700
     33 H3          1.1420    0.8930    2.1510 h1        1 LSE      0.067700
     34 H4          1.2230   -1.2710    2.8260 ho        1 LSE      0.427000
     35 H5          1.3520    2.4660   -0.1830 h2        1 LSE      0.053700
     36 H6          1.3800    3.4620   -2.3120 h1        1 LSE      0.035700
     37 H7          2.9230    2.5580   -2.7140 h1        1 LSE      0.035700
     38 H8          0.1980    2.2780   -4.1780 hc        1 LSE      0.068200
     39 H9          1.6630    1.3210   -4.5400 hc        1 LSE      0.068200
     40 H10         4.1440    2.6700   -5.6940 hc        1 LSE      0.049033
     41 H11         4.1500    4.4390   -5.9990 hc        1 LSE      0.049033
     42 H12         4.2000    3.8180   -4.3160 hc        1 LSE      0.049033
     43 H13         1.5970    2.4000   -7.3590 hc        1 LSE      0.049033
     44 H14         0.1510    3.3830   -6.9540 hc        1 LSE      0.049033
     45 H15         1.6010    4.1700   -7.6600 hc        1 LSE      0.049033
     46 H16         1.7090    6.1200   -5.2980 hc        1 LSE      0.049033
     47 H17         0.2370    5.3430   -4.6280 hc        1 LSE      0.049033
     48 H18         1.7130    5.4890   -3.6180 hc        1 LSE      0.049033
     49 H19         3.2850    2.1600    1.2960 h1        1 LSE      0.071700
     50 H20         5.4670    0.1430    0.7800 h1        1 LSE      0.076700
     51 H21         5.3830    1.4290   -0.4860 h1        1 LSE      0.076700
     52 H22         7.9890    1.4110    1.2660 h1        1 LSE      0.067367
     53 H23         7.5560    2.7250    0.1010 h1        1 LSE      0.067367
     54 H24         7.9870    3.1410    1.8130 h1        1 LSE      0.067367
     55 H25         3.3130   -0.9400    0.8670 h1        1 LSE      0.081700
     56 H26         4.9020   -1.5150    2.3620 h2        1 LSE      0.052700
     57 H27         4.2060   -0.2470    5.1450 h1        1 LSE      0.085700
     58 H28         5.7870    0.7410    3.6830 ho        1 LSE      0.441000
     59 H29         6.2040   -2.5670    4.5320 h1        1 LSE      0.057700
     60 H30         6.5090   -1.0940    6.3610 ho        1 LSE      0.431000
     61 H31         4.6220   -4.0590    5.7040 h1        1 LSE      0.058700
     62 H32         3.7320   -2.2990    7.0170 ho        1 LSE      0.426000
     63 H33         4.2640   -3.8400    3.2830 h1        1 LSE      0.054700
     64 H34         1.5250   -3.5710    4.7640 h1        1 LSE      0.066200
     65 H35         2.4820   -5.1290    4.5470 h1        1 LSE      0.066200
     66 H36         1.4340   -3.5410    2.4510 ho        1 LSE      0.423000
@<TRIPOS>BOND
     1    1    2 1   
     2    1   31 1   
     3    2    3 1   
     4    2    5 1   
     5    2   32 1   
     6    3    4 1   
     7    3   18 1   
     8    3   33 1   
     9    4   34 1   
    10    5    6 1   
    11    5   13 1   
    12    5   35 1   
    13    6    7 1   
    14    7    8 1   
    15    7   36 1   
    16    7   37 1   
    17    8    9 1   
    18    8   38 1   
    19    8   39 1   
    20    9   10 1   
    21    9   11 1   
    22    9   12 1   
    23   10   40 1   
    24   10   41 1   
    25   10   42 1   
    26   11   43 1   
    27   11   44 1   
    28   11   45 1   
    29   12   46 1   
    30   12   47 1   
    31   12   48 1   
    32   13   14 1   
    33   14   15 1   
    34   14   18 1   
    35   14   49 1   
    36   15   16 1   
    37   15   50 1   
    38   15   51 1   
    39   16   17 1   
    40   17   52 1   
    41   17   53 1   
    42   17   54 1   
    43   18   19 1   
    44   18   55 1   
    45   19   20 1   
    46   20   21 1   
    47   20   22 1   
    48   20   56 1   
    49   21   28 1   
    50   22   23 1   
    51   22   24 1   
    52   22   57 1   
    53   23   58 1   
    54   24   25 1   
    55   24   26 1   
    56   24   59 1   
    57   25   60 1   
    58   26   27 1   
    59   26   28 1   
    60   26   61 1   
    61   27   62 1   
    62   28   29 1   
    63   28   63 1   
    64   29   30 1   
    65   29   64 1   
    66   29   65 1   
    67   30   66 1   
@<TRIPOS>SUBSTRUCTURE
     1 LSE         1 TEMP              0 ****  ****    0 ROOT
