@<TRIPOS>MOLECULE
LSG
   42    43     1     0     0
SMALL
bcc


@<TRIPOS>ATOM
      1 C1           0.0000     0.0000     0.0000 ca         1 LSG      -0.069000
      2 C2           1.3830     0.0000     0.0000 ca         1 LSG       0.168900
      3 C3           2.0780     0.0000     1.1970 ca         1 LSG      -0.045000
      4 C4           1.3940     0.0010     2.3960 ca         1 LSG      -0.174000
      5 C5           0.0050     0.0020     2.4010 ca         1 LSG       0.021600
      6 C6          -0.6920     0.0070     1.1980 ca         1 LSG       0.048900
      7 F7          -2.0430     0.0070     1.1980 f          1 LSG      -0.120900
      8 I8           2.4290    -0.0010    -1.8150 i          1 LSG      -0.286900
      9 N9          -0.6920     0.0010     3.6150 nu         1 LSG      -0.181000
     10 C10         -0.0080     0.1220     4.7990 cc         1 LSG      -0.144700
     11 N11          0.8230    -0.8000     5.3280 na         1 LSG       0.518900
     12 C12          1.3260    -0.3210     6.5290 cc         1 LSG      -0.420900
     13 C13          0.7920     0.9320     6.7500 cd         1 LSG      -0.080000
     14 C14         -0.0490     1.2240     5.6590 cd         1 LSG      -0.241600
     15 C15         -0.8290     2.4530     5.4650 c          1 LSG       0.633700
     16 O16         -1.5210     2.5830     4.4720 o          1 LSG      -0.634100
     17 N17         -0.7800     3.4350     6.3850 ns         1 LSG      -0.067400
     18 O18         -1.5330     4.6200     6.1980 os         1 LSG      -0.252900
     19 C19         -1.3850     5.5750     7.2510 c3         1 LSG       0.191400
     20 C20         -2.2390     6.8080     6.9440 c3         1 LSG       0.229400
     21 O21         -3.6210     6.4440     6.9530 oh         1 LSG      -0.580800
     22 C22          1.1440    -2.0980     4.7300 c3         1 LSG      -0.052400
     23 C23          2.2260    -0.9970     7.3770 c          1 LSG       0.664700
     24 O24          2.6300    -2.1020     7.0750 o          1 LSG      -0.596100
     25 C25          2.6870    -0.3480     8.6560 c3         1 LSG      -0.082100
     26 H1          -0.5410     0.0020    -0.9380 ha         1 LSG       0.131000
     27 H3           3.1620    -0.0000     1.1930 ha         1 LSG       0.117000
     28 H4           1.9390    -0.0010     3.3320 ha         1 LSG       0.120000
     29 HN9         -1.6860    -0.1200     3.6210 hn         1 LSG       0.311800
     30 H13          0.9870     1.5730     7.6010 ha         1 LSG       0.126000
     31 HN17        -0.2070     3.3290     7.1990 hn         1 LSG       0.160500
     32 H19         -0.3450     5.8670     7.3310 h1         1 LSG      -0.000800
     33 H19A        -1.7100     5.1350     8.1860 h1         1 LSG      -0.000800
     34 H20         -2.0600     7.5670     7.6960 h1         1 LSG      -0.005300
     35 H20A        -1.9740     7.1970     5.9680 h1         1 LSG      -0.005300
     36 HO21        -4.1500     7.2170     6.8470 ho         1 LSG       0.392000
     37 H22          0.5050    -2.2690     3.8720 h1         1 LSG       0.042367
     38 H22A         0.9840    -2.8820     5.4600 h1         1 LSG       0.042367
     39 H22B         2.1810    -2.1050     4.4150 h1         1 LSG       0.042367
     40 H25          1.8310    -0.1470     9.2880 hc         1 LSG       0.025700
     41 H25A         3.3690    -1.0130     9.1730 hc         1 LSG       0.025700
     42 H25B         3.1940     0.5820     8.4270 hc         1 LSG       0.025700
@<TRIPOS>BOND
     1     1     2 ar  
     2     1     6 ar  
     3     1    26 1   
     4     2     3 ar  
     5     2     8 1   
     6     3     4 ar  
     7     3    27 1   
     8     4     5 ar  
     9     4    28 1   
    10     5     6 ar  
    11     5     9 1   
    12     6     7 1   
    13     9    10 1   
    14     9    29 1   
    15    10    11 1   
    16    10    14 2   
    17    11    12 1   
    18    11    22 1   
    19    12    13 2   
    20    12    23 1   
    21    13    14 1   
    22    13    30 1   
    23    14    15 1   
    24    15    16 2   
    25    15    17 1   
    26    17    18 1   
    27    17    31 1   
    28    18    19 1   
    29    19    20 1   
    30    19    32 1   
    31    19    33 1   
    32    20    21 1   
    33    20    34 1   
    34    20    35 1   
    35    21    36 1   
    36    22    37 1   
    37    22    38 1   
    38    22    39 1   
    39    23    24 2   
    40    23    25 1   
    41    25    40 1   
    42    25    41 1   
    43    25    42 1   
@<TRIPOS>SUBSTRUCTURE
     1 LSG         1 TEMP              0 ****  ****    0 ROOT
