@<TRIPOS>MOLECULE
molecule
   56    59     1     0     0
SMALL
bcc


@<TRIPOS>ATOM
      1 C1           0.0000     0.0000     0.0000 c3         1 LSJ       0.209700
      2 O2           1.4040     0.0000     0.0000 os         1 LSJ      -0.345900
      3 C3           2.0940     0.0000     1.1580 ca         1 LSJ       0.128100
      4 C4           2.1310    -1.1500     1.9350 ca         1 LSJ      -0.072800
      5 C5           2.8050    -1.1690     3.1510 ca         1 LSJ      -0.105000
      6 C6           3.4630    -0.0280     3.5740 ca         1 LSJ      -0.142000
      7 C7           3.4450     1.1140     2.7920 ca         1 LSJ      -0.117000
      8 C8           2.7650     1.1370     1.5880 ca         1 LSJ      -0.143000
      9 C9           1.4560    -2.3490     1.3980 ce         1 LSJ      -0.005400
     10 C10          2.1740    -3.4780     1.1790 cf         1 LSJ      -0.032400
     11 C11          1.5860    -4.5860     0.4110 ca         1 LSJ      -0.014800
     12 C12          1.0530    -4.3530    -0.8620 ca         1 LSJ      -0.121000
     13 C13          0.5030    -5.3940    -1.5800 ca         1 LSJ      -0.115000
     14 C14          0.4770    -6.6700    -1.0480 ca         1 LSJ      -0.164000
     15 C15          1.0040    -6.9140     0.2150 ca         1 LSJ       0.105600
     16 C16          1.5640    -5.8780     0.9450 ca         1 LSJ      -0.121000
     17 N17          0.9740    -8.2060     0.7470 nu         1 LSJ      -0.770500
     18 S18          1.4050    -9.4980    -0.1940 s6         1 LSJ       1.328900
     19 O19          1.2320   -10.6230     0.6560 o          1 LSJ      -0.629300
     20 O20          0.6310    -9.3460    -1.3750 o          1 LSJ      -0.629300
     21 C21          3.1650    -9.2340    -0.5470 c3         1 LSJ      -0.242300
     22 C22          3.5740    -3.5990     1.7240 c3         1 LSJ      -0.046200
     23 C23          3.5370    -4.3290     3.0680 c3         1 LSJ      -0.092100
     24 C24          0.0100    -2.3360     1.0950 ca         1 LSJ      -0.053800
     25 C25         -0.6350    -1.2840     0.4670 ca         1 LSJ      -0.078300
     26 C26         -2.0050    -1.3870     0.2300 ca         1 LSJ      -0.173000
     27 C27         -2.7180    -2.5040     0.6070 ca         1 LSJ      -0.083000
     28 C28         -2.0800    -3.5560     1.2370 ca         1 LSJ      -0.219000
     29 C29         -0.7230    -3.4770     1.4820 ca         1 LSJ       0.154100
     30 O30         -0.0880    -4.5060     2.0990 os         1 LSJ      -0.316900
     31 C31         -0.8870    -5.6340     2.4650 c3         1 LSJ       0.122700
     32 H1          -0.3290     0.1790    -1.0160 h1         1 LSJ       0.062200
     33 H1A         -0.3290     0.7910     0.6630 h1         1 LSJ       0.062200
     34 H5           2.8150    -2.0660     3.7590 ha         1 LSJ       0.144000
     35 H6           4.0000    -0.0310     4.5150 ha         1 LSJ       0.132000
     36 H7           3.9630     2.0030     3.1310 ha         1 LSJ       0.132000
     37 H8           2.7570     2.0360     0.9830 ha         1 LSJ       0.142000
     38 H12          1.0710    -3.3550    -1.2820 ha         1 LSJ       0.146000
     39 H13          0.0910    -5.2110    -2.5650 ha         1 LSJ       0.138000
     40 H14          0.0420    -7.4830    -1.6170 ha         1 LSJ       0.181000
     41 H16          1.9750    -6.0660     1.9300 ha         1 LSJ       0.138000
     42 HN17         0.6840    -8.3500     1.6940 hn         1 LSJ       0.459800
     43 H21          3.2730    -8.4200    -1.2530 h1         1 LSJ       0.100033
     44 H21A         3.6840    -8.9870     0.3710 h1         1 LSJ       0.100033
     45 H21B         3.5880   -10.1370    -0.9690 h1         1 LSJ       0.100033
     46 H22          3.9940    -2.6100     1.8620 hc         1 LSJ       0.056700
     47 H22A         4.1860    -4.1580     1.0260 hc         1 LSJ       0.056700
     48 H23          4.3020    -3.9250     3.7200 hc         1 LSJ       0.036700
     49 H23A         3.7180    -5.3860     2.9100 hc         1 LSJ       0.036700
     50 H23B         2.5640    -4.1940     3.5260 hc         1 LSJ       0.036700
     51 H26         -2.5200    -0.5720    -0.2630 ha         1 LSJ       0.128000
     52 H27         -3.7820    -2.5580     0.4100 ha         1 LSJ       0.132000
     53 H28         -2.6390    -4.4350     1.5330 ha         1 LSJ       0.139000
     54 H31         -0.2580    -6.3900     2.9190 h1         1 LSJ       0.042033
     55 H31A        -1.6460    -5.3240     3.1730 h1         1 LSJ       0.042033
     56 H31B        -1.3620    -6.0430     1.5810 h1         1 LSJ       0.042033
@<TRIPOS>BOND
     1     1     2 1
     2     1    25 1
     3     2     3 1
     4     3     4 ar
     5     3     8 ar
     6     4     5 ar
     7     4     9 1
     8     5     6 ar
     9     6     7 ar
    10     7     8 ar
    11     9    10 2
    12     9    24 1
    13    10    11 1
    14    10    22 1
    15    11    12 ar
    16    11    16 ar
    17    12    13 ar
    18    13    14 ar
    19    14    15 ar
    20    15    16 ar
    21    15    17 1
    22    17    18 1
    23    18    19 2
    24    18    20 2
    25    18    21 1
    26    22    23 1
    27    24    25 ar
    28    24    29 ar
    29    25    26 ar
    30    26    27 ar
    31    27    28 ar
    32    28    29 ar
    33    29    30 1
    34    30    31 1
    35     1    32 1
    36     1    33 1
    37     5    34 1
    38     6    35 1
    39     7    36 1
    40     8    37 1
    41    12    38 1
    42    13    39 1
    43    14    40 1
    44    16    41 1
    45    17    42 1
    46    21    43 1
    47    21    44 1
    48    21    45 1
    49    22    46 1
    50    22    47 1
    51    23    48 1
    52    23    49 1
    53    23    50 1
    54    26    51 1
    55    27    52 1
    56    28    53 1
    57    31    54 1
    58    31    55 1
    59    31    56 1
@<TRIPOS>SUBSTRUCTURE
     1 LSJ         1 TEMP              0 ****  ****    0 ROOT
