@<TRIPOS>MOLECULE
LSJ
   56    59     1     0     0
SMALL
bcc


@<TRIPOS>ATOM
      1 C1           0.0000     0.0000     0.0000 c3         1 LSJ       0.291700
      2 O2           1.4040     0.0000     0.0000 os         1 LSJ      -0.327900
      3 C3           2.0940     0.0000     1.1580 ca         1 LSJ       0.134100
      4 C4           2.1310    -1.1500     1.9350 ca         1 LSJ      -0.070800
      5 C5           2.8050    -1.1690     3.1510 ca         1 LSJ      -0.087000
      6 C6           3.4630    -0.0280     3.5740 ca         1 LSJ      -0.116000
      7 C7           3.4450     1.1140     2.7920 ca         1 LSJ      -0.088000
      8 C8           2.7650     1.1370     1.5880 ca         1 LSJ      -0.122000
      9 C9           1.4560    -2.3490     1.3980 ce         1 LSJ       0.005600
     10 C10          2.1740    -3.4780     1.1790 cf         1 LSJ      -0.046400
     11 C11          1.5860    -4.5860     0.4110 ca         1 LSJ      -0.006800
     12 C12          1.0530    -4.3530    -0.8620 ca         1 LSJ      -0.109000
     13 C13          0.5030    -5.3940    -1.5800 ca         1 LSJ      -0.081000
     14 C14          0.4770    -6.6700    -1.0480 ca         1 LSJ      -0.159000
     15 C15          1.0040    -6.9140     0.2150 ca         1 LSJ       0.034600
     16 C16          1.5640    -5.8780     0.9450 ca         1 LSJ      -0.126000
     17 N17          0.9740    -8.2060     0.7470 nu         1 LSJ      -0.412500
     18 S18          1.4050    -9.4980    -0.1940 s6         1 LSJ       0.952900
     19 O19          1.2320   -10.6230     0.6560 o          1 LSJ      -0.586300
     20 O20          0.6310    -9.3460    -1.3750 o          1 LSJ      -0.586300
     21 C21          3.1650    -9.2340    -0.5470 c3         1 LSJ       0.015700
     22 C22          3.5740    -3.5990     1.7240 c3         1 LSJ       0.009800
     23 C23          3.5370    -4.3290     3.0680 c3         1 LSJ      -0.001100
     24 C24          0.0100    -2.3360     1.0950 ca         1 LSJ      -0.050800
     25 C25         -0.6350    -1.2840     0.4670 ca         1 LSJ      -0.087300
     26 C26         -2.0050    -1.3870     0.2300 ca         1 LSJ      -0.152000
     27 C27         -2.7180    -2.5040     0.6070 ca         1 LSJ      -0.050000
     28 C28         -2.0800    -3.5560     1.2370 ca         1 LSJ      -0.212000
     29 C29         -0.7230    -3.4770     1.4820 ca         1 LSJ       0.162100
     30 O30         -0.0880    -4.5060     2.0990 os         1 LSJ      -0.293900
     31 C31         -0.8870    -5.6340     2.4650 c3         1 LSJ       0.224700
     32 H1          -0.3290     0.1790    -1.0160 h1         1 LSJ       0.017700
     33 H1A         -0.3290     0.7910     0.6630 h1         1 LSJ       0.017700
     34 H5           2.8150    -2.0660     3.7590 ha         1 LSJ       0.122000
     35 H6           4.0000    -0.0310     4.5150 ha         1 LSJ       0.104000
     36 H7           3.9630     2.0030     3.1310 ha         1 LSJ       0.102000
     37 H8           2.7570     2.0360     0.9830 ha         1 LSJ       0.114000
     38 H12          1.0710    -3.3550    -1.2820 ha         1 LSJ       0.119000
     39 H13          0.0910    -5.2110    -2.5650 ha         1 LSJ       0.106000
     40 H14          0.0420    -7.4830    -1.6170 ha         1 LSJ       0.169000
     41 H16          1.9750    -6.0660     1.9300 ha         1 LSJ       0.120000
     42 HN17         0.6840    -8.3500     1.6940 hn         1 LSJ       0.345800
     43 H21          3.2730    -8.4200    -1.2530 h1         1 LSJ       0.064367
     44 H21A         3.6840    -8.9870     0.3710 h1         1 LSJ       0.064367
     45 H21B         3.5880   -10.1370    -0.9690 h1         1 LSJ       0.064367
     46 H22          3.9940    -2.6100     1.8620 hc         1 LSJ       0.027700
     47 H22A         4.1860    -4.1580     1.0260 hc         1 LSJ       0.027700
     48 H23          4.3020    -3.9250     3.7200 hc         1 LSJ       0.006033
     49 H23A         3.7180    -5.3860     2.9100 hc         1 LSJ       0.006033
     50 H23B         2.5640    -4.1940     3.5260 hc         1 LSJ       0.006033
     51 H26         -2.5200    -0.5720    -0.2630 ha         1 LSJ       0.105000
     52 H27         -3.7820    -2.5580     0.4100 ha         1 LSJ       0.101000
     53 H28         -2.6390    -4.4350     1.5330 ha         1 LSJ       0.124000
     54 H31         -0.2580    -6.3900     2.9190 h1         1 LSJ       0.001700
     55 H31A        -1.6460    -5.3240     3.1730 h1         1 LSJ       0.001700
     56 H31B        -1.3620    -6.0430     1.5810 h1         1 LSJ       0.001700
@<TRIPOS>BOND
     1     1     2 1   
     2     1    25 1   
     3     1    32 1   
     4     1    33 1   
     5     2     3 1   
     6     3     4 ar  
     7     3     8 ar  
     8     4     5 ar  
     9     4     9 1   
    10     5     6 ar  
    11     5    34 1   
    12     6     7 ar  
    13     6    35 1   
    14     7     8 ar  
    15     7    36 1   
    16     8    37 1   
    17     9    10 2   
    18     9    24 1   
    19    10    11 1   
    20    10    22 1   
    21    11    12 ar  
    22    11    16 ar  
    23    12    13 ar  
    24    12    38 1   
    25    13    14 ar  
    26    13    39 1   
    27    14    15 ar  
    28    14    40 1   
    29    15    16 ar  
    30    15    17 1   
    31    16    41 1   
    32    17    18 1   
    33    17    42 1   
    34    18    19 2   
    35    18    20 2   
    36    18    21 1   
    37    21    43 1   
    38    21    44 1   
    39    21    45 1   
    40    22    23 1   
    41    22    46 1   
    42    22    47 1   
    43    23    48 1   
    44    23    49 1   
    45    23    50 1   
    46    24    25 ar  
    47    24    29 ar  
    48    25    26 ar  
    49    26    27 ar  
    50    26    51 1   
    51    27    28 ar  
    52    27    52 1   
    53    28    29 ar  
    54    28    53 1   
    55    29    30 1   
    56    30    31 1   
    57    31    54 1   
    58    31    55 1   
    59    31    56 1   
@<TRIPOS>SUBSTRUCTURE
     1 LSJ         1 TEMP              0 ****  ****    0 ROOT
