@<TRIPOS>MOLECULE
molecule
   53    56     1     0     0
SMALL
bcc


@<TRIPOS>ATOM
      1 Cl           0.0000     0.0000     0.0000 cl         1 LSN      -0.149000
      2 C17          1.7360     0.0000     0.0000 cc         1 LSN       0.435300
      3 C15          2.5290     0.0000     1.0890 cd         1 LSN      -0.219900
      4 C16          2.0790    -0.0010     2.5280 c3         1 LSN       0.218700
      5 O            1.9370     1.3460     2.9820 oh         1 LSN      -0.604800
      6 N6           2.5240    -0.0070    -1.0860 nc         1 LSN      -0.692000
      7 C18          3.7750    -0.0050    -0.7110 cd         1 LSN       0.431800
      8 C19          4.9670    -0.0100    -1.6320 c3         1 LSN      -0.096700
      9 C20          5.3710     1.4310    -1.9520 c3         1 LSN      -0.083400
     10 C21          6.5820     1.4250    -2.8870 c3         1 LSN      -0.085400
     11 C22          6.9860     2.8660    -3.2070 c3         1 LSN      -0.091100
     12 N5           3.8220    -0.0010     0.6380 na         1 LSN      -0.159900
     13 C12          5.0320    -0.0010     1.4650 c3         1 LSN       0.088600
     14 C11          5.4470    -1.4220     1.7480 ca         1 LSN      -0.110300
     15 C10          6.3130    -2.0710     0.8870 ca         1 LSN      -0.122500
     16 C9           6.6950    -3.3730     1.1410 ca         1 LSN      -0.073500
     17 C13          4.9630    -2.0700     2.8710 ca         1 LSN      -0.122500
     18 C14          5.3390    -3.3720     3.1350 ca         1 LSN      -0.073500
     19 C8           6.2070    -4.0340     2.2670 cp         1 LSN      -0.048000
     20 C7           6.6140    -5.4310     2.5460 cp         1 LSN      -0.002000
     21 C6           7.0940    -5.7820     3.8050 ca         1 LSN      -0.124000
     22 C5           7.4720    -7.0860     4.0600 ca         1 LSN      -0.112000
     23 C4           7.3790    -8.0480     3.0700 ca         1 LSN      -0.134000
     24 C3           6.9060    -7.7160     1.8160 ca         1 LSN      -0.094000
     25 C2           6.5150    -6.4080     1.5430 ca         1 LSN      -0.107500
     26 C1           6.0070    -6.0470     0.1980 cd         1 LSN       0.572500
     27 N1           5.6020    -4.8340    -0.2060 nd         1 LSN      -0.379000
     28 N4           5.8690    -6.8540    -0.8360 nc         1 LSN      -0.567800
     29 N3           5.3990    -6.1630    -1.8170 na         1 LSN       0.196900
     30 N2           5.2420    -4.9410    -1.4400 nc         1 LSN      -0.198800
     31 H1           2.8160    -0.5120     3.1360 h1         1 LSN       0.038200
     32 H2           1.1270    -0.5110     2.6080 h1         1 LSN       0.038200
     33 H3           1.3010     1.3780     3.6780 ho         1 LSN       0.404000
     34 H6           5.7940    -0.5180    -1.1500 hc         1 LSN       0.064200
     35 H7           4.7130    -0.5250    -2.5500 hc         1 LSN       0.064200
     36 H8           4.5450     1.9390    -2.4350 hc         1 LSN       0.051200
     37 H9           5.6260     1.9470    -1.0340 hc         1 LSN       0.051200
     38 H10          7.4080     0.9170    -2.4050 hc         1 LSN       0.039700
     39 H11          6.3270     0.9090    -3.8050 hc         1 LSN       0.039700
     40 H12          7.2580     3.3770    -2.2910 hc         1 LSN       0.034367
     41 H13          6.1530     3.3790    -3.6730 hc         1 LSN       0.034367
     42 H14          7.8320     2.8620    -3.8830 hc         1 LSN       0.034367
     43 H15          5.8290     0.5100     0.9390 h1         1 LSN       0.073700
     44 H16          4.8300     0.5090     2.4000 h1         1 LSN       0.073700
     45 H17          6.6920    -1.5570     0.0120 ha         1 LSN       0.130500
     46 H18          7.3720    -3.8810     0.4650 ha         1 LSN       0.135000
     47 H19          4.2880    -1.5550     3.5440 ha         1 LSN       0.130500
     48 H20          4.9580    -3.8790     4.0130 ha         1 LSN       0.135000
     49 H21          7.1700    -5.0340     4.5840 ha         1 LSN       0.141000
     50 H22          7.8450    -7.3560     5.0410 ha         1 LSN       0.134000
     51 H23          7.6800    -9.0680     3.2790 ha         1 LSN       0.136000
     52 H24          6.8340    -8.4750     1.0460 ha         1 LSN       0.149000
     53 H4           5.1940    -6.5180    -2.7300 hn         1 LSN       0.370700
@<TRIPOS>BOND
     1    30    27 2
     2    30    29 1
     3    27    26 1
     4    29    28 1
     5    24    23 ar
     6    24    25 ar
     7    26    28 2
     8    26    25 1
     9    23    22 ar
    10    25    20 ar
    11    22    21 ar
    12    20    21 ar
    13    20    19 1
    14     5     4 1
    15    19    18 ar
    16    19    16 ar
    17     4     3 1
    18    18    17 ar
    19     1     2 1
    20    16    15 ar
    21    17    14 ar
    22    15    14 ar
    23     3     2 2
    24     3    12 1
    25    14    13 1
    26     2     6 1
    27    12    13 1
    28    12     7 1
    29     6     7 2
    30     7     8 1
    31     8     9 1
    32     9    10 1
    33    10    11 1
    34     4    31 1
    35     4    32 1
    36     5    33 1
    37     8    34 1
    38     8    35 1
    39     9    36 1
    40     9    37 1
    41    10    38 1
    42    10    39 1
    43    11    40 1
    44    11    41 1
    45    11    42 1
    46    13    43 1
    47    13    44 1
    48    15    45 1
    49    16    46 1
    50    17    47 1
    51    18    48 1
    52    21    49 1
    53    22    50 1
    54    23    51 1
    55    24    52 1
    56    29    53 1
@<TRIPOS>SUBSTRUCTURE
     1 LSN         1 TEMP              0 ****  ****    0 ROOT
