@<TRIPOS>MOLECULE
LSP
   32    31     1     0     0
SMALL
bcc


@<TRIPOS>ATOM
      1 N            0.0000     0.0000     0.0000 nz         1 LSP       0.085400
      2 C12          1.4690     0.0000     0.0000 c3         1 LSP      -0.071200
      3 C11          1.9790     0.0000     1.4430 c3         1 LSP       0.239400
      4 P            2.1680    -1.1540     3.5870 p5         1 LSP       0.907800
      5 O12          1.6700     0.0740     4.2460 o          1 LSP      -0.657500
      6 O14          3.7770    -1.1310     3.5540 o          1 LSP      -0.657500
      7 O11          1.6660    -2.4460     4.4070 os         1 LSP      -0.462200
      8 O13          1.6020    -1.2210     2.0810 os         1 LSP      -0.492200
      9 C1           2.0980    -2.2700     5.7580 c3         1 LSP       0.238400
     10 C2           1.6510    -3.4690     6.5960 c3         1 LSP       0.165100
     11 O21          2.3160    -4.6470     6.1360 oh         1 LSP      -0.575800
     12 C3           2.0030    -3.2240     8.0650 c3         1 LSP       0.216400
     13 O31          1.4740    -4.3070     8.8760 os         1 LSP      -0.426900
     14 C31          1.6640    -4.3040    10.2050 c          1 LSP       0.695100
     15 O32          2.2730    -3.4000    10.7260 o          1 LSP      -0.592000
     16 C32          1.1150    -5.4270    11.0470 c3         1 LSP      -0.036100
     17 HN1         -0.3340     0.1610    -0.9300 hn         1 LSP       0.216133
     18 HN2         -0.3340     0.7250     0.6040 hn         1 LSP       0.216133
     19 HN3         -0.3340    -0.8860     0.3250 hn         1 LSP       0.216133
     20 H121         1.8300    -0.8840    -0.5110 hx         1 LSP       0.070200
     21 H122         1.8300     0.8840    -0.5110 hx         1 LSP       0.070200
     22 H111         1.5470     0.8360     1.9780 h1         1 LSP       0.048200
     23 H112         3.0590     0.0890     1.4440 h1         1 LSP       0.048200
     24 H11          3.1780    -2.1930     5.7840 h1         1 LSP       0.023700
     25 H12          1.6610    -1.3640     6.1620 h1         1 LSP       0.023700
     26 H2           0.5800    -3.5990     6.4990 h1         1 LSP      -0.001300
     27 H21          1.6780    -5.2660     5.8230 ho         1 LSP       0.383000
     28 H31          1.5700    -2.2860     8.3880 h1         1 LSP       0.018700
     29 H32          3.0800    -3.1830     8.1760 h1         1 LSP       0.018700
     30 H321         1.5800    -6.3600    10.7520 hc         1 LSP       0.024033
     31 H322         1.3270    -5.2320    12.0910 hc         1 LSP       0.024033
     32 H323         0.0440    -5.4960    10.9030 hc         1 LSP       0.024033
@<TRIPOS>BOND
     1     1     2 1   
     2     1    17 1   
     3     1    18 1   
     4     1    19 1   
     5     2     3 1   
     6     2    20 1   
     7     2    21 1   
     8     3     8 1   
     9     3    22 1   
    10     3    23 1   
    11     4     5 1   
    12     4     6 1   
    13     4     7 1   
    14     4     8 1   
    15     7     9 1   
    16     9    10 1   
    17     9    24 1   
    18     9    25 1   
    19    10    11 1   
    20    10    12 1   
    21    10    26 1   
    22    11    27 1   
    23    12    13 1   
    24    12    28 1   
    25    12    29 1   
    26    13    14 1   
    27    14    15 2   
    28    14    16 1   
    29    16    30 1   
    30    16    31 1   
    31    16    32 1   
@<TRIPOS>SUBSTRUCTURE
     1 LSP         1 TEMP              0 ****  ****    0 ROOT
