@<TRIPOS>MOLECULE
LSR
   39    39     1     0     0
SMALL
bcc


@<TRIPOS>ATOM
      1 CAF         2.2700    0.7310   -0.5280 c3        1 LSR     -0.062900
      2 CAE         2.8950   -0.0920    0.5230 c2        1 LSR     -0.159200
      3 CAD         2.4690   -0.1390    1.7980 ce        1 LSR     -0.095200
      4 CAA         1.2970    0.6460    2.2660 c3        1 LSR     -0.056900
      5 CAC         3.0830   -0.9970    2.8030 ce        1 LSR     -0.124000
      6 CAB         4.3830   -1.1590    3.0720 cf        1 LSR     -0.118000
      7 CAK         5.5330   -0.4980    2.4530 cf        1 LSR     -0.073200
      8 CAJ         6.1790   -1.0340    1.3980 c2        1 LSR     -0.112400
      9 CAI         5.7590   -2.3040    0.7540 c3        1 LSR     -0.060900
     10 CAN         7.4010   -0.4290    0.7970 c3        1 LSR     -0.039200
     11 CAO         7.6270    1.0020    1.2320 c3        1 LSR     -0.075400
     12 CAP         7.4060    1.1510    2.7200 c3        1 LSR     -0.070400
     13 CAL         5.9830    0.7700    3.1380 c3        1 LSR     -0.003800
     14 CAH         5.0270    1.9070    2.7950 c3        1 LSR     -0.085100
     15 CAM         5.9750    0.5640    4.6510 c3        1 LSR     -0.085100
     16 HAE         3.7740   -0.6870    0.2170 ha        1 LSR      0.131000
     17 HAA         1.3490    1.6940    1.8760 hc        1 LSR      0.040367
     18 HAAA        0.3480    0.1830    1.8940 hc        1 LSR      0.040367
     19 HAAB        1.2550    0.6880    3.3810 hc        1 LSR      0.040367
     20 HAC         2.3440   -1.5560    3.4090 ha        1 LSR      0.121000
     21 HAB         4.6760   -1.8550    3.8820 ha        1 LSR      0.123000
     22 HAI         5.5120   -2.1270   -0.3230 hc        1 LSR      0.042033
     23 HAIA        6.5940   -3.0470    0.8010 hc        1 LSR      0.042033
     24 HAIB        4.8620   -2.7470    1.2530 hc        1 LSR      0.042033
     25 HAN         8.2850   -1.0570    1.0940 hc        1 LSR      0.046200
     26 HANA        7.3270   -0.4720   -0.3230 hc        1 LSR      0.046200
     27 HAO         6.9310    1.6820    0.6740 hc        1 LSR      0.041200
     28 HAOA        8.6730    1.3120    0.9730 hc        1 LSR      0.041200
     29 HAP         7.6040    2.2110    3.0280 hc        1 LSR      0.041200
     30 HAPA        8.1370    0.4980    3.2670 hc        1 LSR      0.041200
     31 HAH         5.2710    2.8090    3.4050 hc        1 LSR      0.036533
     32 HAHA        5.1050    2.1730    1.7140 hc        1 LSR      0.036533
     33 HAHB        3.9730    1.5990    3.0070 hc        1 LSR      0.036533
     34 HAM         4.9320    0.4150    5.0180 hc        1 LSR      0.036533
     35 HAMA        6.4070    1.4610    5.1570 hc        1 LSR      0.036533
     36 HAMB        6.5820   -0.3310    4.9260 hc        1 LSR      0.036533
     37 HAF         1.1550    0.7270   -0.4380 hc        1 LSR      0.040033
     38 HAFA        2.5420    0.3510   -1.5440 hc        1 LSR      0.040033
     39 H24         2.6200    1.7910   -0.4450 hc        1 LSR      0.040033
@<TRIPOS>BOND
     1    1    2 1   
     2    1   37 1   
     3    1   38 1   
     4    1   39 1   
     5    2    3 2   
     6    2   16 1   
     7    3    4 1   
     8    3    5 1   
     9    4   17 1   
    10    4   18 1   
    11    4   19 1   
    12    5    6 2   
    13    5   20 1   
    14    6    7 1   
    15    6   21 1   
    16    7    8 2   
    17    7   13 1   
    18    8    9 1   
    19    8   10 1   
    20    9   22 1   
    21    9   23 1   
    22    9   24 1   
    23   10   11 1   
    24   10   25 1   
    25   10   26 1   
    26   11   12 1   
    27   11   27 1   
    28   11   28 1   
    29   12   13 1   
    30   12   29 1   
    31   12   30 1   
    32   13   14 1   
    33   13   15 1   
    34   14   31 1   
    35   14   32 1   
    36   14   33 1   
    37   15   34 1   
    38   15   35 1   
    39   15   36 1   
@<TRIPOS>SUBSTRUCTURE
     1 LSR         1 TEMP              0 ****  ****    0 ROOT
