@<TRIPOS>MOLECULE
molecule
   39    39     1     0     0
SMALL
bcc


@<TRIPOS>ATOM
      1 CAF          0.0000     0.0000     0.0000 c3         1 LSR      -0.100900
      2 CAE          1.5060     0.0000     0.0000 c2         1 LSR      -0.480200
      3 CAD          2.1730     0.0000     1.1530 ce         1 LSR       0.041800
      4 CAA          1.4210     0.0020     2.4590 c3         1 LSR      -0.130900
      5 CAC          3.6380     0.0010     1.1530 ce         1 LSR      -0.131000
      6 CAB          4.3130     0.0010     2.3210 cf         1 LSR      -0.104000
      7 CAK          5.7780     0.0240     2.3210 cf         1 LSR      -0.103200
      8 CAJ          6.4140    -0.9410     1.6870 c2         1 LSR      -0.101400
      9 CAI          5.5940    -2.0000     0.9960 c3         1 LSR      -0.061900
     10 CAN          7.9100    -1.0460     1.6120 c3         1 LSR      -0.036200
     11 CAO          8.5500     0.2950     1.9790 c3         1 LSR      -0.082400
     12 CAP          7.9340     0.7850     3.2960 c3         1 LSR      -0.069400
     13 CAL          6.4680     1.1490     3.0360 c3         1 LSR      -0.013800
     14 CAH          6.3990     2.4140     2.1780 c3         1 LSR      -0.079600
     15 CAM          5.7680     1.4060     4.3710 c3         1 LSR      -0.079600
     16 HAE          0.8950     0.8750     0.1850 ha         1 LSR       0.319000
     17 HAA          0.4380    -0.4300     2.3100 hc         1 LSR       0.050367
     18 HAAA         1.3180     1.0200     2.8150 hc         1 LSR       0.050367
     19 HAAB         1.9650    -0.5830     3.1900 hc         1 LSR       0.050367
     20 HAC          4.1790     0.0180     0.2150 ha         1 LSR       0.158000
     21 HAB          3.7720     0.0010     3.2590 ha         1 LSR       0.130000
     22 HAI          4.7330    -2.2460     1.6070 hc         1 LSR       0.046033
     23 HAIA         6.1980    -2.8880     0.8520 hc         1 LSR       0.046033
     24 HAIB         5.2610    -1.6300     0.0350 hc         1 LSR       0.046033
     25 HAN          8.2000    -1.3150     0.6030 hc         1 LSR       0.051200
     26 HANA         8.2510    -1.8060     2.3040 hc         1 LSR       0.051200
     27 HAO          9.6180     0.1640     2.1050 hc         1 LSR       0.045200
     28 HAOA         8.3550     1.0170     1.1960 hc         1 LSR       0.045200
     29 HAP          7.9870    -0.0020     4.0380 hc         1 LSR       0.044700
     30 HAPA         8.4690     1.6600     3.6440 hc         1 LSR       0.044700
     31 HAH          5.4260     2.8760     2.2950 hc         1 LSR       0.036033
     32 HAHA         7.1690     3.1070     2.4940 hc         1 LSR       0.036033
     33 HAHB         6.5520     2.1530     1.1380 hc         1 LSR       0.036033
     34 HAM          4.8070     1.8730     4.1900 hc         1 LSR       0.036033
     35 HAMA         6.3790     2.0620     4.9790 hc         1 LSR       0.036033
     36 HAMB         5.6210     0.4670     4.8890 hc         1 LSR       0.036033
     37 HAF         -0.3610    -1.0000     0.2070 hc         1 LSR       0.046033
     38 HAFA        -0.3610     0.3210    -0.9700 hc         1 LSR       0.046033
     39 H24         -0.3610     0.6800     0.7620 hc         1 LSR       0.046033
@<TRIPOS>BOND
     1     1     2 1
     2     2     3 2
     3     2    16 1
     4     3     4 1
     5     3     5 1
     6     4    17 1
     7     4    18 1
     8     4    19 1
     9     5     6 2
    10     5    20 1
    11     6     7 1
    12     6    21 1
    13     7     8 2
    14     7    13 1
    15     8     9 1
    16     8    10 1
    17     9    22 1
    18     9    23 1
    19     9    24 1
    20    10    11 1
    21    10    25 1
    22    10    26 1
    23    11    12 1
    24    11    27 1
    25    11    28 1
    26    12    13 1
    27    12    29 1
    28    12    30 1
    29    13    14 1
    30    13    15 1
    31    14    31 1
    32    14    32 1
    33    14    33 1
    34    15    34 1
    35    15    35 1
    36    15    36 1
    37     1    37 1
    38     1    38 1
    39     1    39 1
@<TRIPOS>SUBSTRUCTURE
     1 LSR         1 TEMP              0 ****  ****    0 ROOT
