@<TRIPOS>MOLECULE
molecule
   57    59     1     0     0
SMALL
bcc


@<TRIPOS>ATOM
      1 C1           0.0000     0.0000     0.0000 c          1 LSS       0.667100
      2 N1           0.1820     1.7850    -9.5390 nb         1 LSS      -0.824000
      3 O1          -0.6070     1.0330    -0.1820 o          1 LSS      -0.523100
      4 S1          -2.3290    -1.1540     0.1890 s6         1 LSS       1.639100
      5 C2          -1.0310     1.2690    -9.4620 ca         1 LSS       0.761900
      6 N2          -0.6730    -1.1510     0.1960 ns         1 LSS      -0.657300
      7 O2          -2.5740    -2.3070    -6.9710 oh         1 LSS      -0.544800
      8 N3          -1.5030     0.7360    -8.3540 nb         1 LSS      -0.785000
      9 O3          -4.3290    -2.7470    -5.1020 oh         1 LSS      -0.556800
     10 C4          -0.7600     0.6960    -7.2530 ca         1 LSS       0.499800
     11 N4           1.9960     1.2010    -0.6910 nz         1 LSS      -0.797600
     12 O4          -2.2250    -0.2870    -4.0220 os         1 LSS      -0.423600
     13 C5           0.5380     1.2310    -7.2840 ca         1 LSS      -0.223200
     14 O5          -2.7750    -0.7740    -1.2150 os         1 LSS      -0.525500
     15 C6           0.9970     1.7900    -8.4890 ca         1 LSS       0.796200
     16 N6           2.2670     2.3310    -8.5810 nv         1 LSS      -0.978500
     17 C7           3.5430    -0.1130     1.4440 c3         1 LSS      -0.091700
     18 N7           1.0680     1.0650    -6.0480 nc         1 LSS      -0.590100
     19 C8           0.1990     0.4760    -5.2790 cd         1 LSS       0.394700
     20 C9           2.0170     0.0000     1.4430 c3         1 LSS      -0.101400
     21 N9          -0.9460     0.2270    -5.9770 na         1 LSS      -0.251000
     22 CA           1.5070     0.0000     0.0000 c3         1 LSS       0.018500
     23 C10          4.0630     0.0340     2.8750 c3         1 LSS      -0.093100
     24 C11          3.9550    -1.4770     0.8880 c3         1 LSS      -0.093100
     25 O1A         -2.7300    -2.5040     0.3860 o          1 LSS      -0.595300
     26 C21         -2.1530    -0.4210    -5.4570 c3         1 LSS       0.262800
     27 C22         -2.0860    -1.9540    -5.6740 c3         1 LSS       0.096100
     28 C23         -3.0300    -2.4800    -4.5670 c3         1 LSS       0.089100
     29 C24         -3.0950    -1.3280    -3.5460 c3         1 LSS       0.130100
     30 C25         -2.6180    -1.8190    -2.1770 c3         1 LSS       0.153400
     31 O2A         -2.7360    -0.0910     1.0400 o          1 LSS      -0.595300
     32 HN2         -0.1720    -1.9980     0.3800 hn         1 LSS       0.354500
     33 HO2         -2.1040    -3.0600    -7.2900 ho         1 LSS       0.413000
     34 HO3         -4.5730    -3.6370    -4.9070 ho         1 LSS       0.416000
     35 HN4          2.9340     1.0460    -1.0050 hn         1 LSS       0.466800
     36 HN4A         1.9790     1.9790    -0.0620 hn         1 LSS       0.466800
     37 HN6          2.8820     2.3000    -7.7920 hn         1 LSS       0.452800
     38 HN6A         2.5730     2.7470    -9.4380 hn         1 LSS       0.452800
     39 H7           3.9630     0.6710     0.8250 hc         1 LSS       0.025700
     40 H8           0.3620     0.2220    -4.2390 h5         1 LSS       0.048800
     41 H9           1.7220     0.9220     1.9300 hc         1 LSS       0.095200
     42 H9A          1.5920    -0.8420     1.9760 hc         1 LSS       0.095200
     43 HA           1.8680    -0.8840    -0.5110 hx         1 LSS       0.124700
     44 H10          3.6760    -0.7740     3.4850 hc         1 LSS       0.052867
     45 H10A         3.7350     0.9830     3.2830 hc         1 LSS       0.052867
     46 H10B         5.1450    -0.0030     2.8720 hc         1 LSS       0.052867
     47 H11          3.2480    -2.2290     1.2170 hc         1 LSS       0.052867
     48 H11A         4.9450    -1.7300     1.2490 hc         1 LSS       0.052867
     49 H11B         3.9640    -1.4380    -0.1940 hc         1 LSS       0.052867
     50 H21         -3.0420    -0.0110    -5.9210 h2         1 LSS       0.130700
     51 H22         -1.0770    -2.3180    -5.5220 h1         1 LSS       0.051700
     52 H23         -2.6140    -3.3680    -4.1070 h1         1 LSS       0.044700
     53 H24         -4.1090    -0.9550    -3.4760 h1         1 LSS       0.112700
     54 H25         -1.5730    -2.1000    -2.2380 h1         1 LSS       0.064700
     55 H25A        -3.2060    -2.6780    -1.8770 h1         1 LSS       0.064700
     56 H43          1.4090     1.3960    -1.4780 hn         1 LSS       0.466800
     57 H2          -1.6620     1.2860   -10.3420 h5         1 LSS       0.074100
@<TRIPOS>BOND
     1     1     3 2
     2     1     6 1
     3     1    22 1
     4     2     5 ar
     5     2    15 ar
     6     4     6 1
     7     4    14 1
     8     4    25 2
     9     4    31 2
    10     5     8 ar
    11     7    27 1
    12     8    10 ar
    13     9    28 1
    14    10    13 ar
    15    10    21 1
    16    11    22 1
    17    12    26 1
    18    12    29 1
    19    13    15 ar
    20    13    18 1
    21    14    30 1
    22    15    16 1
    23    17    20 1
    24    17    23 1
    25    17    24 1
    26    18    19 2
    27    19    21 1
    28    20    22 1
    29    21    26 1
    30    26    27 1
    31    27    28 1
    32    28    29 1
    33    29    30 1
    34     5    57 1
    35     6    32 1
    36     7    33 1
    37     9    34 1
    38    11    35 1
    39    11    36 1
    40    16    37 1
    41    16    38 1
    42    17    39 1
    43    19    40 1
    44    20    41 1
    45    20    42 1
    46    22    43 1
    47    23    44 1
    48    23    45 1
    49    23    46 1
    50    24    47 1
    51    24    48 1
    52    24    49 1
    53    26    50 1
    54    27    51 1
    55    28    52 1
    56    29    53 1
    57    30    54 1
    58    30    55 1
    59    56    11 1
@<TRIPOS>SUBSTRUCTURE
     1 LSS         1 TEMP              0 ****  ****    0 ROOT
