@<TRIPOS>MOLECULE
molecule
   69    71     1     0     0
SMALL
bcc


@<TRIPOS>ATOM
      1 C            0.0000     0.0000     0.0000 c          1 LSW       0.868600
      2 N            1.9970     1.2000    -0.6920 n7         1 LSW      -0.795200
      3 O           -0.6720    -1.1600     0.0660 o          1 LSW      -0.864300
      4 CA           1.5070     0.0000     0.0000 c3         1 LSW       0.061500
      5 CB           2.0160     0.0000     1.4430 c3         1 LSW      -0.040400
      6 NAA         -0.8980     6.3580    -3.4670 nz         1 LSW      -0.812600
      7 OAC          5.6480     1.5800    -4.2020 o          1 LSW      -0.849300
      8 OAD          4.1360     0.0380    -1.6760 o          1 LSW      -0.589100
      9 OAF          7.1470     0.0400    -4.7140 o          1 LSW      -0.849300
     10 CAG          4.9660    -0.1270     5.4720 ca         1 LSW      -0.156000
     11 CAH          4.6360    -1.3190     4.8560 ca         1 LSW      -0.137500
     12 CAI          4.8280     1.0670     4.7880 ca         1 LSW      -0.137500
     13 CAJ         -0.5370    -2.8710    -5.3380 ca         1 LSW      -0.110000
     14 CAK         -0.0460    -1.5970    -5.5910 ca         1 LSW      -0.169000
     15 CAL          4.1750    -1.3190     3.5520 ca         1 LSW      -0.127500
     16 CAM          4.3670     1.0670     3.4840 ca         1 LSW      -0.127500
     17 CAN          0.3230    -3.9190    -5.0920 ca         1 LSW      -0.143000
     18 CAO          1.3000    -1.3620    -5.6060 ca         1 LSW      -0.075000
     19 CAP          3.9420    -3.7890    -5.0110 cc         1 LSW      -0.115100
     20 CAQ         -0.8310     5.0300    -2.8440 c3         1 LSW       0.082800
     21 CAR          0.5130     4.3780    -3.1740 c3         1 LSW      -0.108400
     22 CAS          0.5830     2.9950    -2.5260 c3         1 LSW      -0.085400
     23 CAT          3.5410    -0.1260     1.4450 c3         1 LSW      -0.044100
     24 CAU          1.9280     2.3430    -2.8560 c3         1 LSW      -0.073400
     25 CAW          4.6360    -1.3900    -5.5060 c3         1 LSW      -0.007200
     26 NAX          3.5710     0.0270    -3.8210 ns         1 LSW      -0.557900
     27 CBB          5.9040     0.4110    -4.3710 c          1 LSW       0.887600
     28 CBC          3.3210     0.3190    -2.5300 c          1 LSW       0.668100
     29 CBD          4.0440    -0.1260     2.8650 ca         1 LSW      -0.048300
     30 CBE          3.6490    -2.5110    -5.2970 cd         1 LSW      -0.123400
     31 CBF          1.6980    -3.7000    -5.0970 ca         1 LSW      -0.036200
     32 CBG          2.1900    -2.4100    -5.3650 ca         1 LSW      -0.090800
     33 CBI          2.0280     0.9920    -2.1460 c3         1 LSW       0.100500
     34 CBJ          4.8270    -0.6280    -4.1940 c3         1 LSW       0.015700
     35 OXT         -0.6040     1.0460    -0.0550 o          1 LSW      -0.864300
     36 NXZ          2.7880    -4.5160    -4.8930 na         1 LSW      -0.190400
     37 HN           1.4020     1.9750    -0.4790 hn         1 LSW       0.349800
     38 HA           1.8680    -0.8850    -0.5100 h1         1 LSW       0.076700
     39 HB           1.7300     0.9260     1.9270 hc         1 LSW       0.038700
     40 HBA          1.5840    -0.8370     1.9780 hc         1 LSW       0.038700
     41 HNAA        -0.8050     6.2660    -4.4590 hn         1 LSW       0.445467
     42 HNAB        -1.7790     6.7820    -3.2530 hn         1 LSW       0.445467
     43 HAG          5.3270    -0.1270     6.4940 ha         1 LSW       0.108000
     44 HAH          4.7420    -2.2540     5.3930 ha         1 LSW       0.111500
     45 HAI          5.0840     2.0020     5.2720 ha         1 LSW       0.111500
     46 HAJ         -1.6060    -3.0420    -5.3290 ha         1 LSW       0.118000
     47 HAK         -0.7360    -0.7840    -5.7830 ha         1 LSW       0.109000
     48 HAL          3.9190    -2.2540     3.0680 ha         1 LSW       0.132500
     49 HAM          4.2620     2.0020     2.9470 ha         1 LSW       0.132500
     50 HAN         -0.0690    -4.9090    -4.8950 ha         1 LSW       0.115000
     51 HAO          1.6750    -0.3650    -5.8050 ha         1 LSW       0.120000
     52 HAP          4.9420    -4.1870    -4.8910 h4         1 LSW       0.168000
     53 HAQ         -1.6350     4.4110    -3.2240 hx         1 LSW       0.116700
     54 HAQA        -0.9290     5.1290    -1.7690 hx         1 LSW       0.116700
     55 HAR          0.6110     4.2790    -4.2490 hc         1 LSW       0.056200
     56 HARA         1.3170     4.9960    -2.7940 hc         1 LSW       0.056200
     57 HAS          0.4840     3.0940    -1.4510 hc         1 LSW       0.078700
     58 HASA        -0.2210     2.3760    -2.9060 hc         1 LSW       0.078700
     59 HAT          3.8280    -1.0520     0.9610 hc         1 LSW       0.073700
     60 HATA         3.9740     0.7100     0.9090 hc         1 LSW       0.073700
     61 HAU          2.7330     2.9870    -2.5230 hc         1 LSW       0.055200
     62 HAUA         2.0040     2.1950    -3.9270 hc         1 LSW       0.055200
     63 HAW          5.5860    -1.8010    -5.8270 hc         1 LSW       0.055700
     64 HAWA         4.2600    -0.7150    -6.2650 hc         1 LSW       0.055700
     65 HNAX         2.9220     0.3030    -4.5310 hn         1 LSW       0.286500
     66 HBI          1.1940     0.3670    -2.4400 h1         1 LSW       0.054700
     67 HBJ          5.1190    -1.3210    -3.4130 h1         1 LSW       0.080700
     68 HNXZ         2.7430    -5.4940    -4.6830 hn         1 LSW       0.284700
     69 HAA3        -0.1580     6.9300    -3.1130 hn         1 LSW       0.445467
@<TRIPOS>BOND
     1     3     1 1
     2     1     4 1
     3     1    35 1
     4    33     2 1
     5     2     4 1
     6     2    37 1
     7     4     5 1
     8     4    38 1
     9     5    23 1
    10     5    39 1
    11     5    40 1
    12    20     6 1
    13     6    41 1
    14     6    42 1
    15     7    27 1
    16    28     8 2
    17    27     9 1
    18    11    10 ar
    19    12    10 ar
    20    10    43 1
    21    15    11 ar
    22    11    44 1
    23    16    12 ar
    24    12    45 1
    25    17    13 ar
    26    13    14 ar
    27    13    46 1
    28    18    14 ar
    29    14    47 1
    30    29    15 ar
    31    15    48 1
    32    29    16 ar
    33    16    49 1
    34    31    17 ar
    35    17    50 1
    36    32    18 ar
    37    18    51 1
    38    19    36 1
    39    19    30 2
    40    19    52 1
    41    20    21 1
    42    20    53 1
    43    20    54 1
    44    21    22 1
    45    21    55 1
    46    21    56 1
    47    22    24 1
    48    22    57 1
    49    22    58 1
    50    23    29 1
    51    23    59 1
    52    23    60 1
    53    24    33 1
    54    24    61 1
    55    24    62 1
    56    25    30 1
    57    25    34 1
    58    25    63 1
    59    25    64 1
    60    34    26 1
    61    26    28 1
    62    26    65 1
    63    27    34 1
    64    28    33 1
    65    30    32 1
    66    36    31 1
    67    31    32 ar
    68    33    66 1
    69    34    67 1
    70    36    68 1
    71    69     6 1
@<TRIPOS>SUBSTRUCTURE
     1 LSW         1 TEMP              0 ****  ****    0 ROOT
