@<TRIPOS>MOLECULE
LSX
   36    36     1     0     0
SMALL
bcc


@<TRIPOS>ATOM
      1 C2           0.0000     0.0000     0.0000 ca         1 LSX      -0.088000
      2 C3           1.3830     0.0000     0.0000 ca         1 LSX       0.044700
      3 C4           2.0760     0.0000     1.1960 ca         1 LSX      -0.088000
      4 C6           0.0020     0.0020     2.3980 ca         1 LSX       0.036100
      5 C7           2.1340    -0.0010    -1.3060 c3         1 LSX      -0.012600
      6 C14          4.9720    -2.2300    -2.5780 c          1 LSX       0.609100
      7 C17          6.6950    -3.5780    -3.6530 c3         1 LSX       0.086300
      8 O15          5.1550    -2.8620    -1.5590 o          1 LSX      -0.684100
      9 N16          5.6920    -2.5110    -3.6830 n          1 LSX      -0.067300
     10 O18          5.4780    -1.7720    -4.8730 oh         1 LSX      -0.416100
     11 C12          3.2730    -1.0210    -1.2370 c3         1 LSX       0.038600
     12 P8           2.8240     1.6590    -1.6110 p5         1 LSX       0.433700
     13 O11          3.4970     1.6990    -3.0740 o          1 LSX      -0.725167
     14 O10          1.7400     2.6640    -1.5390 o          1 LSX      -0.725167
     15 C5           1.3890     0.0010     2.3950 ca         1 LSX      -0.179500
     16 C1          -0.6920     0.0020     1.1960 ca         1 LSX      -0.179500
     17 O19         -0.6770     0.0040     3.5750 os         1 LSX      -0.328900
     18 C20         -2.1040     0.0050     3.5020 c3         1 LSX       0.245700
     19 H1          -0.5410    -0.0000    -0.9380 ha         1 LSX       0.118500
     20 H2           3.1590    -0.0000     1.1930 ha         1 LSX       0.118500
     21 H3           1.4590    -0.2660    -2.1110 hc         1 LSX       0.015700
     22 H5           3.1930    -1.3610    -3.3580 hc         1 LSX       0.083200
     23 H6           4.4220    -0.1930    -2.8540 hc         1 LSX       0.083200
     24 H7           7.2260    -3.6010    -4.5970 h1         1 LSX      -0.004300
     25 H8           6.2040    -4.5300    -3.4920 h1         1 LSX      -0.004300
     26 H9           7.3960    -3.3920    -2.8480 h1         1 LSX      -0.004300
     27 H10          5.2960    -2.3650    -5.5820 ho         1 LSX       0.361000
     28 H11          2.8750    -1.9870    -0.9500 hc         1 LSX      -0.000800
     29 H12          4.0030    -0.6990    -0.5050 hc         1 LSX      -0.000800
     30 H14          1.9330     0.0020     3.3320 ha         1 LSX       0.081500
     31 H15         -1.7750     0.0020     1.1950 ha         1 LSX       0.081500
     32 H16         -2.5170     0.0050     4.5030 h1         1 LSX      -0.021633
     33 H17         -2.4390    -0.8790     2.9730 h1         1 LSX      -0.021633
     34 H18         -2.4380     0.8900     2.9730 h1         1 LSX      -0.021633
     35 O9           3.9390     1.9910    -0.4980 o          1 LSX      -0.725167
     36 C13          3.9410    -1.1320    -2.6090 c3         1 LSX      -0.135400
@<TRIPOS>BOND
     1     1     2 ar  
     2     1    16 ar  
     3     1    19 1   
     4     2     3 ar  
     5     2     5 1   
     6     3    15 ar  
     7     3    20 1   
     8     4    15 ar  
     9     4    16 ar  
    10     4    17 1   
    11     5    11 1   
    12     5    12 1   
    13     5    21 1   
    14     6     8 2   
    15     6     9 1   
    16     6    36 1   
    17     7     9 1   
    18     7    24 1   
    19     7    25 1   
    20     7    26 1   
    21     9    10 1   
    22    10    27 1   
    23    11    28 1   
    24    11    29 1   
    25    11    36 1   
    26    12    13 1   
    27    12    14 1   
    28    12    35 1   
    29    15    30 1   
    30    16    31 1   
    31    17    18 1   
    32    18    32 1   
    33    18    33 1   
    34    18    34 1   
    35    22    36 1   
    36    23    36 1   
@<TRIPOS>SUBSTRUCTURE
     1 LSX         1 TEMP              0 ****  ****    0 ROOT
