@<TRIPOS>MOLECULE
molecule
   36    36     1     0     0
SMALL
bcc


@<TRIPOS>ATOM
      1 C2           0.0000     0.0000     0.0000 ca         1 LSX      -0.089500
      2 C3           1.3830     0.0000     0.0000 ca         1 LSX       0.011700
      3 C4           2.0760     0.0000     1.1960 ca         1 LSX      -0.089500
      4 C6           0.0020     0.0020     2.3980 ca         1 LSX       0.062100
      5 C7           2.1340    -0.0010    -1.3060 c3         1 LSX      -0.181600
      6 C14          4.9720    -2.2300    -2.5780 c          1 LSX       0.688100
      7 C17          6.6950    -3.5780    -3.6530 c3         1 LSX       0.098300
      8 O15          5.1550    -2.8620    -1.5590 o          1 LSX      -0.636100
      9 N16          5.6920    -2.5110    -3.6830 n          1 LSX      -0.392300
     10 O18          5.4780    -1.7720    -4.8730 oh         1 LSX      -0.353100
     11 C12          3.2730    -1.0210    -1.2370 c3         1 LSX      -0.025400
     12 P8           2.8240     1.6590    -1.6110 p5         1 LSX       1.025700
     13 O11          3.4970     1.6990    -3.0740 o          1 LSX      -0.895500
     14 O10          1.7400     2.6640    -1.5390 o          1 LSX      -0.895500
     15 C5           1.3890     0.0010     2.3950 ca         1 LSX      -0.195000
     16 C1          -0.6920     0.0020     1.1960 ca         1 LSX      -0.195000
     17 O19         -0.6770     0.0040     3.5750 os         1 LSX      -0.353900
     18 C20         -2.1040     0.0050     3.5020 c3         1 LSX       0.139700
     19 H1          -0.5410    -0.0000    -0.9380 ha         1 LSX       0.146000
     20 H2           3.1590    -0.0000     1.1930 ha         1 LSX       0.146000
     21 H3           1.4590    -0.2660    -2.1110 hc         1 LSX       0.040700
     22 H5           3.1930    -1.3610    -3.3580 hc         1 LSX       0.111200
     23 H6           4.4220    -0.1930    -2.8540 hc         1 LSX       0.111200
     24 H7           7.2260    -3.6010    -4.5970 h1         1 LSX       0.028367
     25 H8           6.2040    -4.5300    -3.4920 h1         1 LSX       0.028367
     26 H9           7.3960    -3.3920    -2.8480 h1         1 LSX       0.028367
     27 H10          5.2960    -2.3650    -5.5820 ho         1 LSX       0.367000
     28 H11          2.8750    -1.9870    -0.9500 hc         1 LSX       0.029700
     29 H12          4.0030    -0.6990    -0.5050 hc         1 LSX       0.029700
     30 H14          1.9330     0.0020     3.3320 ha         1 LSX       0.102000
     31 H15         -1.7750     0.0020     1.1950 ha         1 LSX       0.102000
     32 H16         -2.5170     0.0050     4.5030 h1         1 LSX       0.019700
     33 H17         -2.4390    -0.8790     2.9730 h1         1 LSX       0.019700
     34 H18         -2.4380     0.8900     2.9730 h1         1 LSX       0.019700
     35 O9           3.9390     1.9910    -0.4980 o          1 LSX      -0.895500
     36 C13          3.9410    -1.1320    -2.6090 c3         1 LSX      -0.157400
@<TRIPOS>BOND
     1    14    12 1
     2    35    12 1
     3    12    13 1
     4    12     5 1
     5    11     5 1
     6    11    36 1
     7     8     6 2
     8     5     2 1
     9    36     6 1
    10     6     9 1
    11     2     1 ar
    12     2     3 ar
    13     1    16 ar
    14     9    10 1
    15     9     7 1
    16     3    15 ar
    17    16     4 ar
    18    15     4 ar
    19     4    17 1
    20    17    18 1
    21     1    19 1
    22     3    20 1
    23     5    21 1
    24    36    22 1
    25    36    23 1
    26     7    24 1
    27     7    25 1
    28     7    26 1
    29    10    27 1
    30    11    28 1
    31    11    29 1
    32    15    30 1
    33    16    31 1
    34    18    32 1
    35    18    33 1
    36    18    34 1
@<TRIPOS>SUBSTRUCTURE
     1 LSX         1 TEMP              0 ****  ****    0 ROOT
