@<TRIPOS>MOLECULE
molecule
   21    21     1     0     0
SMALL
bcc


@<TRIPOS>ATOM
      1 C1           0.0000     0.0000     0.0000 c3         1 LT1       0.050000
      2 C2           1.5300     0.0000     0.0000 c3         1 LT1      -0.089400
      3 C3           2.0390     0.0000     1.4430 c3         1 LT1      -0.036100
      4 C4           3.5470    -0.0000     1.4430 ca         1 LT1      -0.084300
      5 C5           4.2380    -1.1960     1.4370 ca         1 LT1      -0.124000
      6 C6           5.6200    -1.1970     1.4380 ca         1 LT1      -0.125000
      7 C7           6.3110    -0.0000     1.4430 ca         1 LT1      -0.129000
      8 C8           5.6200     1.1970     1.4470 ca         1 LT1      -0.125000
      9 C9           4.2370     1.1980     1.4420 ca         1 LT1      -0.124000
     10 Cl1         -0.6010    -0.0010    -1.7000 cl         1 LT1      -0.208400
     11 H1          -0.3610    -0.8840     0.5110 h1         1 LT1       0.062700
     12 H1A         -0.3610     0.8850     0.5100 h1         1 LT1       0.062700
     13 H2           1.8910    -0.8850    -0.5110 hc         1 LT1       0.060700
     14 H2A          1.8910     0.8850    -0.5110 hc         1 LT1       0.060700
     15 H3           1.6780     0.8850     1.9540 hc         1 LT1       0.049700
     16 H3A          1.6780    -0.8850     1.9540 hc         1 LT1       0.049700
     17 H5           3.6970    -2.1350     1.4330 ha         1 LT1       0.130000
     18 H6           6.1610    -2.1350     1.4340 ha         1 LT1       0.130000
     19 H7           7.3940    -0.0000     1.4450 ha         1 LT1       0.129000
     20 H8           6.1620     2.1350     1.4490 ha         1 LT1       0.130000
     21 H9           3.6960     2.1360     1.4450 ha         1 LT1       0.130000
@<TRIPOS>BOND
     1     2     1 1
     2     1    10 1
     3     1    11 1
     4     1    12 1
     5     3     2 1
     6     2    13 1
     7     2    14 1
     8     4     3 1
     9     3    15 1
    10     3    16 1
    11     5     4 ar
    12     4     9 ar
    13     6     5 ar
    14     5    17 1
    15     6     7 ar
    16     6    18 1
    17     7     8 ar
    18     7    19 1
    19     8     9 ar
    20     8    20 1
    21     9    21 1
@<TRIPOS>SUBSTRUCTURE
     1 LT1         1 TEMP              0 ****  ****    0 ROOT
