@<TRIPOS>MOLECULE
LT1
   21    21     1     0     0
SMALL
bcc


@<TRIPOS>ATOM
      1 C1          0.0020   -0.0000    0.0030 c3        1 LT1      0.037000
      2 C2          1.5120   -0.0000   -0.0120 c3        1 LT1     -0.089400
      3 C3          2.0500    0.0010    1.4090 c3        1 LT1     -0.037100
      4 C4          3.5380    0.0010    1.4240 ca        1 LT1     -0.081300
      5 C5          4.2450   -1.2080    1.4310 ca        1 LT1     -0.126000
      6 C6          5.6380   -1.2070    1.4500 ca        1 LT1     -0.127000
      7 C7          6.3380    0.0000    1.4640 ca        1 LT1     -0.130000
      8 C8          5.6380    1.2070    1.4580 ca        1 LT1     -0.127000
      9 C9          4.2450    1.2080    1.4380 ca        1 LT1     -0.126000
     10 CL1        -0.6600   -0.0010   -1.6230 cl        1 LT1     -0.196400
     11 H1         -0.3970    0.9120    0.5080 h1        1 LT1      0.063700
     12 H1A        -0.3970   -0.9120    0.5090 h1        1 LT1      0.063700
     13 H2          1.8920   -0.9040   -0.5570 hc        1 LT1      0.061700
     14 H2A         1.8920    0.9030   -0.5580 hc        1 LT1      0.061700
     15 H3          1.6650   -0.9030    1.9530 hc        1 LT1      0.048700
     16 H3A         1.6650    0.9050    1.9520 hc        1 LT1      0.048700
     17 H5          3.6960   -2.1610    1.4210 ha        1 LT1      0.131000
     18 H6          6.1870   -2.1600    1.4550 ha        1 LT1      0.132000
     19 H7          7.4370    0.0000    1.4790 ha        1 LT1      0.132000
     20 H8          6.1870    2.1600    1.4680 ha        1 LT1      0.132000
     21 H9          3.6960    2.1620    1.4340 ha        1 LT1      0.131000
@<TRIPOS>BOND
     1    1    2 1   
     2    1   10 1   
     3    1   11 1   
     4    1   12 1   
     5    2    3 1   
     6    2   13 1   
     7    2   14 1   
     8    3    4 1   
     9    3   15 1   
    10    3   16 1   
    11    4    5 ar  
    12    4    9 ar  
    13    5    6 ar  
    14    5   17 1   
    15    6    7 ar  
    16    6   18 1   
    17    7    8 ar  
    18    7   19 1   
    19    8    9 ar  
    20    8   20 1   
    21    9   21 1   
@<TRIPOS>SUBSTRUCTURE
     1 LT1         1 TEMP              0 ****  ****    0 ROOT
