@<TRIPOS>MOLECULE
molecule
   19    20     1     0     0
SMALL
bcc


@<TRIPOS>ATOM
      1 CAF          0.0000     0.0000     0.0000 c3         1 LT2       0.205800
      2 NAG          1.4620     0.0000     0.0000 nu         1 LT2      -0.792000
      3 CAH          1.9570     0.0000     1.2840 cc         1 LT2       0.234000
      4 CAD          3.2610    -0.0010     1.7050 cd         1 LT2      -0.378200
      5 CAJ          3.5810    -0.0020     3.0730 c          1 LT2       0.504300
      6 OAA          4.7420    -0.0020     3.4350 o          1 LT2      -0.491100
      7 CAK          2.4710    -0.0010     4.0790 c          1 LT2       0.463300
      8 OAB          2.7060    -0.0020     5.2690 o          1 LT2      -0.452100
      9 CAE          1.0830    -0.0000     3.5810 cd         1 LT2      -0.167200
     10 CAI          0.8550     0.0000     2.2560 cc         1 LT2      -0.085200
     11 CAL         -0.4400    -0.0000     1.4710 c3         1 LT2       0.172300
     12 OAC         -1.2000    -1.1730     1.7650 oh         1 LT2      -0.582800
     13 HAF         -0.3580     0.9020    -0.4810 h1         1 LT2       0.061200
     14 HAFA        -0.3580    -0.9020    -0.4810 h1         1 LT2       0.061200
     15 HNAG         2.0270     0.0010    -0.8260 hn         1 LT2       0.467800
     16 HAD          4.0580    -0.0020     0.9720 ha         1 LT2       0.156000
     17 HAE          0.2590     0.1290     4.2720 ha         1 LT2       0.157000
     18 HAL         -1.0120     0.8930     1.6920 h1         1 LT2       0.058700
     19 HOAC        -2.0970    -0.9330     1.9330 ho         1 LT2       0.409000
@<TRIPOS>BOND
     1     2     1 1
     2    11     1 1
     3     1    13 1
     4     1    14 1
     5     3     2 1
     6     2    15 1
     7     4     3 2
     8     3    10 1
     9     5     4 1
    10     4    16 1
    11     6     5 2
    12     5     7 1
    13     8     7 2
    14     7     9 1
    15     9    10 2
    16     9    17 1
    17    10    11 1
    18    11    12 1
    19    11    18 1
    20    12    19 1
@<TRIPOS>SUBSTRUCTURE
     1 LT2         1 TEMP              0 ****  ****    0 ROOT
