@<TRIPOS>MOLECULE
molecule
   29    31     1     0     0
SMALL
bcc


@<TRIPOS>ATOM
      1 C1           0.0000     0.0000     0.0000 c3         1 LT3      -0.024400
      2 N1          -1.6720    -0.7720     1.7330 nz         1 LT3      -0.797600
      3 C3           0.0780     1.4510     1.9740 c3         1 LT3      -0.097400
      4 C5           3.2870     0.0040     1.6280 ca         1 LT3      -0.142300
      5 C6           4.2220     0.0030     0.6070 ca         1 LT3      -0.061000
      6 C9           1.5300     0.0000     0.0000 ca         1 LT3      -0.114300
      7 C2          -0.3860     1.4290     0.4970 c3         1 LT3      -0.101400
      8 C4           0.6910    -0.0000     2.1990 c3         1 LT3      -0.030400
      9 C12         -0.2730    -0.8540     1.2930 c3         1 LT3       0.065500
     10 C10          1.9450     0.0000     1.3250 ca         1 LT3      -0.064300
     11 C7           3.8080     0.0010    -0.7130 ca         1 LT3      -0.105000
     12 C8           2.4560     0.0000    -1.0160 ca         1 LT3      -0.064000
     13 C11          3.7380     0.0060     3.0660 c3         1 LT3       0.674200
     14 F1           3.2490    -1.1360     3.7100 f          1 LT3      -0.215633
     15 F3           5.1360     0.0060     3.1170 f          1 LT3      -0.215633
     16 F2           3.2480     1.1490     3.7070 f          1 LT3      -0.215633
     17 H1          -0.4820    -0.3430    -0.9070 hc         1 LT3       0.102700
     18 HN1         -1.7230    -0.2550     2.5890 hn         1 LT3       0.456467
     19 HN1A        -2.2160    -0.3100     1.0320 hn         1 LT3       0.456467
     20 H3           0.8350     2.2120     2.1240 hc         1 LT3       0.075200
     21 H3A         -0.7630     1.6170     2.6360 hc         1 LT3       0.075200
     22 H6           5.2800     0.0040     0.8410 ha         1 LT3       0.175000
     23 H2          -1.4570     1.5780     0.4320 hc         1 LT3       0.071700
     24 H2A          0.1360     2.1850    -0.0770 hc         1 LT3       0.071700
     25 H4           0.8080    -0.3300     3.2250 hc         1 LT3       0.113700
     26 H12          0.0700    -1.8760     1.1850 hx         1 LT3       0.136700
     27 H7           4.5410     0.0010    -1.5100 ha         1 LT3       0.165000
     28 H8           2.1310    -0.0010    -2.0490 ha         1 LT3       0.153000
     29 H13         -2.0300    -1.6950     1.8790 hn         1 LT3       0.456467
@<TRIPOS>BOND
     1     9     1 1
     2     7     1 1
     3     1     6 1
     4     1    17 1
     5     2     9 1
     6     2    18 1
     7     2    19 1
     8     7     3 1
     9     8     3 1
    10     3    20 1
    11     3    21 1
    12    10     4 ar
    13    13     4 1
    14     4     5 ar
    15     5    11 ar
    16     5    22 1
    17    10     6 ar
    18     6    12 ar
    19     7    23 1
    20     7    24 1
    21     9     8 1
    22     8    10 1
    23     8    25 1
    24     9    26 1
    25    12    11 ar
    26    11    27 1
    27    12    28 1
    28    16    13 1
    29    14    13 1
    30    13    15 1
    31    29     2 1
@<TRIPOS>SUBSTRUCTURE
     1 LT3         1 TEMP              0 ****  ****    0 ROOT
