@<TRIPOS>MOLECULE
LT3
   29    31     1     0     0
SMALL
bcc


@<TRIPOS>ATOM
      1 C1           0.0000     0.0000     0.0000 c3         1 LT3       0.045600
      2 N1          -1.6720    -0.7720     1.7330 nz         1 LT3       0.089400
      3 C3           0.0780     1.4510     1.9740 c3         1 LT3      -0.043400
      4 C5           3.2870     0.0040     1.6280 ca         1 LT3      -0.162300
      5 C6           4.2220     0.0030     0.6070 ca         1 LT3      -0.021000
      6 C9           1.5300     0.0000     0.0000 ca         1 LT3      -0.133300
      7 C2          -0.3860     1.4290     0.4970 c3         1 LT3      -0.049400
      8 C4           0.6910    -0.0000     2.1990 c3         1 LT3       0.035600
      9 C12         -0.2730    -0.8540     1.2930 c3         1 LT3      -0.130500
     10 C10          1.9450     0.0000     1.3250 ca         1 LT3      -0.067300
     11 C7           3.8080     0.0010    -0.7130 ca         1 LT3      -0.074000
     12 C8           2.4560     0.0000    -1.0160 ca         1 LT3      -0.021000
     13 C11          3.7380     0.0060     3.0660 c3         1 LT3       0.640200
     14 F1           3.2490    -1.1360     3.7100 f          1 LT3      -0.201300
     15 F3           5.1360     0.0060     3.1170 f          1 LT3      -0.201300
     16 F2           3.2480     1.1490     3.7070 f          1 LT3      -0.201300
     17 H1          -0.4820    -0.3430    -0.9070 hc         1 LT3       0.068700
     18 HN1         -1.7230    -0.2550     2.5890 hn         1 LT3       0.225800
     19 HN1A        -2.2160    -0.3100     1.0320 hn         1 LT3       0.225800
     20 H3           0.8350     2.2120     2.1240 hc         1 LT3       0.043200
     21 H3A         -0.7630     1.6170     2.6360 hc         1 LT3       0.043200
     22 H6           5.2800     0.0040     0.8410 ha         1 LT3       0.140000
     23 H2          -1.4570     1.5780     0.4320 hc         1 LT3       0.040700
     24 H2A          0.1360     2.1850    -0.0770 hc         1 LT3       0.040700
     25 H4           0.8080    -0.3300     3.2250 hc         1 LT3       0.078700
     26 H12          0.0700    -1.8760     1.1850 hx         1 LT3       0.112700
     27 H7           4.5410     0.0010    -1.5100 ha         1 LT3       0.130000
     28 H8           2.1310    -0.0010    -2.0490 ha         1 LT3       0.118000
     29 H13         -2.0300    -1.6950     1.8790 hn         1 LT3       0.225800
@<TRIPOS>BOND
     1     1     6 1   
     2     1     7 1   
     3     1     9 1   
     4     1    17 1   
     5     2     9 1   
     6     2    18 1   
     7     2    19 1   
     8     2    29 1   
     9     3     7 1   
    10     3     8 1   
    11     3    20 1   
    12     3    21 1   
    13     4     5 ar  
    14     4    10 ar  
    15     4    13 1   
    16     5    11 ar  
    17     5    22 1   
    18     6    10 ar  
    19     6    12 ar  
    20     7    23 1   
    21     7    24 1   
    22     8     9 1   
    23     8    10 1   
    24     8    25 1   
    25     9    26 1   
    26    11    12 ar  
    27    11    27 1   
    28    12    28 1   
    29    13    14 1   
    30    13    15 1   
    31    13    16 1   
@<TRIPOS>SUBSTRUCTURE
     1 LT3         1 TEMP              0 ****  ****    0 ROOT
