@<TRIPOS>MOLECULE
LT4
   24    24     1     0     0
SMALL
bcc


@<TRIPOS>ATOM
      1 OAC          0.0000     0.0000     0.0000 oh         1 LT4      -0.473100
      2 CAJ          1.3600     0.0000     0.0000 ca         1 LT4       0.114100
      3 CAG          2.0540     0.0000     1.2000 ca         1 LT4      -0.120000
      4 CAI          2.0570    -0.0050    -1.2050 ca         1 LT4       0.147100
      5 OAB          1.3810    -0.0100    -2.3840 oh         1 LT4      -0.479100
      6 CAE          3.4430    -0.0050    -1.1990 ca         1 LT4      -0.127000
      7 CAF          4.1300     0.0010     0.0010 ca         1 LT4      -0.057000
      8 CAK          3.4370     0.0010     1.1970 ca         1 LT4      -0.185300
      9 CAL          4.1910     0.0000     2.5020 c3         1 LT4       0.259400
     10 OAD          5.3850    -0.7730     2.3630 oh         1 LT4      -0.596800
     11 CAH          4.5540     1.4370     2.8810 c3         1 LT4      -0.064200
     12 NAA          5.2890     1.4370     4.1540 nz         1 LT4       0.088400
     13 HOAC        -0.3140     0.8470     0.2710 ho         1 LT4       0.411000
     14 HAG          1.5140     0.0000     2.1390 ha         1 LT4       0.112000
     15 HOAB         1.4550    -0.8600    -2.7860 ho         1 LT4       0.421000
     16 HAE          3.9880    -0.0070    -2.1350 ha         1 LT4       0.130000
     17 HAF          5.2130     0.0010     0.0040 ha         1 LT4       0.118000
     18 HAL          3.5700    -0.4310     3.2780 h1         1 LT4       0.016700
     19 HOAD         5.2540    -1.6240     2.7470 ho         1 LT4       0.427000
     20 HAH          3.6490     2.0230     2.9870 hx         1 LT4       0.093700
     21 HAHA         5.1750     1.8690     2.1060 hx         1 LT4       0.093700
     22 HNAA         4.8120     0.8560     4.8140 hn         1 LT4       0.223133
     23 HNAB         5.3410     2.3710     4.5080 hn         1 LT4       0.223133
     24 HAA3         6.2130     1.0840     4.0050 hn         1 LT4       0.223133
@<TRIPOS>BOND
     1     1     2 1   
     2     1    13 1   
     3     2     3 ar  
     4     2     4 ar  
     5     3     8 ar  
     6     3    14 1   
     7     4     5 1   
     8     4     6 ar  
     9     5    15 1   
    10     6     7 ar  
    11     6    16 1   
    12     7     8 ar  
    13     7    17 1   
    14     8     9 1   
    15     9    10 1   
    16     9    11 1   
    17     9    18 1   
    18    10    19 1   
    19    11    12 1   
    20    11    20 1   
    21    11    21 1   
    22    12    22 1   
    23    12    23 1   
    24    12    24 1   
@<TRIPOS>SUBSTRUCTURE
     1 LT4         1 TEMP              0 ****  ****    0 ROOT
