@<TRIPOS>MOLECULE
molecule
   25    25     1     0     0
SMALL
bcc


@<TRIPOS>ATOM
      1 FAC          0.0000     0.0000     0.0000 f          1 LT5      -0.213633
      2 CAN          1.3990     0.0000     0.0000 c3         1 LT5       0.677200
      3 FAD          1.8650     0.0000     1.3190 f          1 LT5      -0.213633
      4 FAE          1.8650    -1.1430    -0.6600 f          1 LT5      -0.213633
      5 CAL          1.9010     1.2300    -0.7110 ca         1 LT5      -0.171300
      6 CAI          3.2600     1.4450    -0.8430 ca         1 LT5      -0.067000
      7 CAH          1.0030     2.1400    -1.2370 ca         1 LT5      -0.048000
      8 CAF          1.4640     3.2670    -1.8890 ca         1 LT5      -0.122000
      9 CAG          2.8240     3.4860    -2.0160 ca         1 LT5      -0.067000
     10 CAK          3.7210     2.5740    -1.4940 ca         1 LT5      -0.166300
     11 CAM          5.2030     2.8090    -1.6370 c3         1 LT5       0.183400
     12 OAB          5.4670     3.4390    -2.8920 oh         1 LT5      -0.610800
     13 CAJ          5.6880     3.7130    -0.5020 c3         1 LT5       0.092800
     14 NAA          7.1320     3.9420    -0.6400 nz         1 LT5      -0.809600
     15 HAI          3.9640     0.7300    -0.4340 ha         1 LT5       0.142000
     16 HAH         -0.0620     1.9690    -1.1380 ha         1 LT5       0.172000
     17 HAF          0.7600     3.9810    -2.2990 ha         1 LT5       0.161000
     18 HAG          3.1850     4.3710    -2.5270 ha         1 LT5       0.152000
     19 HAM          5.7250     1.8610    -1.5920 h1         1 LT5       0.056700
     20 HOAB         5.7860     2.7970    -3.5050 ho         1 LT5       0.440000
     21 HAJ          5.4880     3.2350     0.4500 hx         1 LT5       0.123700
     22 HAJA         5.1660     4.6610    -0.5460 hx         1 LT5       0.123700
     23 HNAA         7.5930     3.0710    -0.8120 hn         1 LT5       0.459133
     24 HNAB         7.4870     4.3480     0.2030 hn         1 LT5       0.459133
     25 HAA3         7.2990     4.5650    -1.4060 hn         1 LT5       0.459133
@<TRIPOS>BOND
     1     1     2 1
     2     5     2 1
     3     4     2 1
     4     2     3 1
     5     6     5 ar
     6     5     7 ar
     7    10     6 ar
     8     6    15 1
     9     8     7 ar
    10     7    16 1
    11     9     8 ar
    12     8    17 1
    13    10     9 ar
    14     9    18 1
    15    11    10 1
    16    13    11 1
    17    11    12 1
    18    11    19 1
    19    12    20 1
    20    14    13 1
    21    13    21 1
    22    13    22 1
    23    14    23 1
    24    14    24 1
    25    25    14 1
@<TRIPOS>SUBSTRUCTURE
     1 LT5         1 TEMP              0 ****  ****    0 ROOT
