@<TRIPOS>MOLECULE
LT6
   59    60     1     0     0
SMALL
bcc


@<TRIPOS>ATOM
      1 C1           0.0000     0.0000     0.0000 c3         1 LT6       0.006900
      2 N1           4.0600     0.0000     2.8230 n          1 LT6      -0.142800
      3 O1          12.3430    -3.3490     2.4790 oh         1 LT6      -0.604800
      4 C2           1.5300     0.0000     0.0000 c3         1 LT6      -0.022400
      5 N2          10.6020    -1.1680     3.2440 ns         1 LT6      -0.181900
      6 O2           8.7110    -1.1690     2.0820 o          1 LT6      -0.622100
      7 C3           2.0410     0.0000     1.4420 c3         1 LT6      -0.054400
      8 C4           3.5710     0.0000     1.4420 c3         1 LT6       0.054000
      9 O4           4.0810    -2.2200     2.8850 o          1 LT6      -0.627100
     10 C5           4.3040     1.2690     3.5130 c3         1 LT6       0.078300
     11 C6          12.3170     3.5560     3.3580 ca         1 LT6      -0.101000
     12 C7          12.2810     2.5840     4.3410 ca         1 LT6      -0.095500
     13 C8          12.4320     1.2530     4.0020 ca         1 LT6      -0.099000
     14 C9          12.6160     0.8930     2.6810 ca         1 LT6      -0.095300
     15 C10         12.6520     1.8640     1.6980 ca         1 LT6      -0.099000
     16 C11         12.5020     3.1950     2.0360 ca         1 LT6      -0.095500
     17 C12         12.7790    -0.5600     2.3120 c3         1 LT6       0.019900
     18 C13         11.4070    -1.1690     2.0200 c3         1 LT6       0.020700
     19 C14         11.5820    -2.6070     1.5250 c3         1 LT6       0.200400
     20 C15          9.2560    -1.1680     3.1660 c          1 LT6       0.561100
     21 C16          8.4290    -1.1680     4.4240 c3         1 LT6       0.134400
     22 C17          6.1530    -1.1670     5.1080 ca         1 LT6       0.203100
     23 C18          6.6050    -1.1610     6.4190 ca         1 LT6      -0.237000
     24 C19          5.7010    -1.1610     7.4650 ca         1 LT6      -0.017000
     25 C20          4.3410    -1.1670     7.2140 ca         1 LT6      -0.183000
     26 C21          3.8700    -1.1710     5.9150 ca         1 LT6       0.177900
     27 C22          4.7750    -1.1660     4.8480 ca         1 LT6      -0.206600
     28 C23          4.2840    -1.1670     3.4590 c          1 LT6       0.626700
     29 H1          -0.3610     0.0020    -1.0210 hc         1 LT6       0.000700
     30 H1A         -0.3610    -0.8860     0.5090 hc         1 LT6       0.000700
     31 H1B         -0.3610     0.8830     0.5130 hc         1 LT6       0.000700
     32 HO1         12.4770    -4.2270     2.1610 ho         1 LT6       0.397000
     33 H2           1.8910     0.8840    -0.5110 hc         1 LT6       0.012700
     34 H2A          1.8910    -0.8840    -0.5110 hc         1 LT6       0.012700
     35 HN2         11.0510    -1.2080     4.1370 hn         1 LT6       0.178500
     36 H3           1.6800     0.8840     1.9530 hc         1 LT6       0.023200
     37 H3A          1.6800    -0.8840     1.9530 hc         1 LT6       0.023200
     38 H4           3.9320    -0.8840     0.9310 h1         1 LT6       0.033700
     39 H4A          3.9320     0.8840     0.9310 h1         1 LT6       0.033700
     40 H5           4.0990     2.0920     2.8390 h1         1 LT6       0.009033
     41 H5A          5.3380     1.3130     3.8320 h1         1 LT6       0.009033
     42 H5B          3.6560     1.3400     4.3780 h1         1 LT6       0.009033
     43 H7          12.1370     2.8670     5.3770 ha         1 LT6       0.103000
     44 H8          12.4040     0.4910     4.7720 ha         1 LT6       0.104000
     45 H10         12.7960     1.5810     0.6620 ha         1 LT6       0.104000
     46 H11         12.5300     3.9570     1.2660 ha         1 LT6       0.103000
     47 H12         13.2430    -1.0910     3.1340 hc         1 LT6       0.034200
     48 H12A        13.4050    -0.6410     1.4310 hc         1 LT6       0.034200
     49 H13         10.9070    -0.5830     1.2590 h1         1 LT6       0.065700
     50 H14         10.6090    -3.0670     1.4020 h1         1 LT6       0.003700
     51 H14A        12.1020    -2.6000     0.5740 h1         1 LT6       0.003700
     52 H16          8.6570    -2.0520     5.0070 h1         1 LT6       0.015700
     53 H16A         8.6570    -0.2830     5.0060 h1         1 LT6       0.015700
     54 H18          7.6690    -1.1560     6.6240 ha         1 LT6       0.121000
     55 H19          6.0610    -1.1570     8.4860 ha         1 LT6       0.104000
     56 H20          3.6410    -1.1670     8.0410 ha         1 LT6       0.124000
     57 F1           2.5410    -1.1790     5.6760 f          1 LT6      -0.120900
     58 O3           7.0410    -1.1670     4.0830 os         1 LT6      -0.256900
     59 H6          12.1990     4.6000     3.6240 ha         1 LT6       0.103000
@<TRIPOS>BOND
     1     1     4 1   
     2     1    29 1   
     3     1    30 1   
     4     1    31 1   
     5     2     8 1   
     6     2    10 1   
     7     2    28 1   
     8     3    19 1   
     9     3    32 1   
    10     4     7 1   
    11     4    33 1   
    12     4    34 1   
    13     5    18 1   
    14     5    20 1   
    15     5    35 1   
    16     6    20 2   
    17     7     8 1   
    18     7    36 1   
    19     7    37 1   
    20     8    38 1   
    21     8    39 1   
    22     9    28 2   
    23    10    40 1   
    24    10    41 1   
    25    10    42 1   
    26    11    12 ar  
    27    11    16 ar  
    28    11    59 1   
    29    12    13 ar  
    30    12    43 1   
    31    13    14 ar  
    32    13    44 1   
    33    14    15 ar  
    34    14    17 1   
    35    15    16 ar  
    36    15    45 1   
    37    16    46 1   
    38    17    18 1   
    39    17    47 1   
    40    17    48 1   
    41    18    19 1   
    42    18    49 1   
    43    19    50 1   
    44    19    51 1   
    45    20    21 1   
    46    21    52 1   
    47    21    53 1   
    48    21    58 1   
    49    22    23 ar  
    50    22    27 ar  
    51    22    58 1   
    52    23    24 ar  
    53    23    54 1   
    54    24    25 ar  
    55    24    55 1   
    56    25    26 ar  
    57    25    56 1   
    58    26    27 ar  
    59    26    57 1   
    60    27    28 1   
@<TRIPOS>SUBSTRUCTURE
     1 LT6         1 TEMP              0 ****  ****    0 ROOT
