@<TRIPOS>MOLECULE
molecule
   55    54     1     0     0
SMALL
bcc


@<TRIPOS>ATOM
      1 O1           0.0000     0.0000     0.0000 o          1 LTB      -0.851800
      2 C1           1.2080     0.0000     0.0000 c          1 LTB       0.892600
      3 O2           1.8790     0.0000     1.1620 o          1 LTB      -0.851800
      4 C2           1.9620    -0.0050    -1.3050 c3         1 LTB      -0.183400
      5 C3           0.9680    -0.0100    -2.4680 c3         1 LTB      -0.063400
      6 C4           1.7320    -0.0150    -3.7930 c3         1 LTB      -0.123400
      7 C5           0.7380    -0.0200    -4.9560 c3         1 LTB       0.306300
      8 O3          -0.0040    -1.2420    -4.9430 oh         1 LTB      -0.592800
      9 C6           1.4880     0.0980    -6.2580 c2         1 LTB      -0.305200
     10 C7           1.3270     1.1780    -7.0240 ce         1 LTB      -0.174000
     11 C8           0.5280     2.3060    -6.5410 ce         1 LTB      -0.042000
     12 C9           0.4460     3.4360    -7.2720 cf         1 LTB      -0.255000
     13 C10         -0.3530     4.5650    -6.7880 cf         1 LTB      -0.096000
     14 C11         -0.4350     5.6820    -7.5100 c2         1 LTB      -0.236200
     15 C12         -1.2570     6.8430    -7.0130 c3         1 LTB       0.173300
     16 C20          5.0360    11.4680    -3.2140 c3         1 LTB      -0.093100
     17 O12         -2.2870     7.1370    -7.9580 oh         1 LTB      -0.597800
     18 C19          3.6360    11.7810    -3.7460 c3         1 LTB      -0.082400
     19 C18          2.8530    10.4790    -3.9220 c3         1 LTB      -0.090400
     20 C17          1.4540    10.7920    -4.4550 c3         1 LTB      -0.097400
     21 C16          0.6710     9.4900    -4.6300 c3         1 LTB       0.066800
     22 C15         -0.7070     9.7990    -5.1550 c2         1 LTB      -0.251200
     23 C13         -0.3560     8.0690    -6.8420 c3         1 LTB       0.067800
     24 H21C         2.5840     0.8790    -1.3660 hc         1 LTB       0.029700
     25 H22C         2.5850    -0.8890    -1.3590 hc         1 LTB       0.029700
     26 H31C         0.3450     0.8750    -2.4140 hc         1 LTB       0.055700
     27 H32C         0.3450    -0.8940    -2.4070 hc         1 LTB       0.055700
     28 H41C         2.3560    -0.8990    -3.8470 hc         1 LTB       0.060200
     29 H42C         2.3540     0.8700    -3.8540 hc         1 LTB       0.060200
     30 H5           0.0580     0.8160    -4.8540 h1         1 LTB       0.068700
     31 H3          -0.4370    -1.3550    -5.7730 ho         1 LTB       0.410000
     32 H6           1.8500     0.5650    -5.3500 ha         1 LTB       0.117000
     33 H7           0.2470     1.1870    -7.1090 ha         1 LTB       0.100000
     34 H8           0.0040     2.2330    -5.5950 ha         1 LTB       0.155000
     35 H9           0.9700     3.5100    -8.2170 ha         1 LTB       0.141000
     36 H10         -0.8780     4.4920    -5.8430 ha         1 LTB       0.119000
     37 H11          0.0900     5.7550    -8.4560 ha         1 LTB       0.134000
     38 H12         -1.7030     6.5870    -6.0590 h1         1 LTB       0.044700
     39 HA          -3.1120     6.8150    -7.6340 ho         1 LTB       0.404000
     40 H131         0.0200     8.3780    -7.8100 hc         1 LTB       0.056700
     41 H132         0.4750     7.8190    -6.1950 hc         1 LTB       0.056700
     42 H14         -0.3360     9.3950    -6.9150 ha         1 LTB       0.073000
     43 H15         -0.5350     8.9470    -4.5080 ha         1 LTB       0.074000
     44 H161         0.5890     8.9860    -3.6750 hc         1 LTB       0.046200
     45 H162         1.1890     8.8490    -5.3330 hc         1 LTB       0.046200
     46 H171         0.9250    11.4100    -3.7390 hc         1 LTB       0.052200
     47 H172         1.5360    11.3220    -5.3960 hc         1 LTB       0.052200
     48 H201         5.5560    10.8310    -3.9190 hc         1 LTB       0.032700
     49 H202         4.9530    10.9590    -2.2610 hc         1 LTB       0.032700
     50 H203         5.5880    12.3900    -3.0840 hc         1 LTB       0.032700
     51 H181         3.3710     9.8370    -4.6240 hc         1 LTB       0.041700
     52 H182         2.7710     9.9750    -2.9660 hc         1 LTB       0.041700
     53 H191         3.1180    12.4230    -3.0440 hc         1 LTB       0.039200
     54 H192         3.7190    12.2850    -4.7020 hc         1 LTB       0.039200
     55 C14         -1.1500     9.1940    -6.2290 c2         1 LTB      -0.221200
@<TRIPOS>BOND
     1     1     2 1
     2     2     3 1
     3     2     4 1
     4     4     5 1
     5     5     6 1
     6     6     7 1
     7     7     8 1
     8     7     9 1
     9     9    10 2
    10    10    11 1
    11    11    12 2
    12    12    13 1
    13    13    14 2
    14    14    15 1
    15    15    17 1
    16    15    23 1
    17    23    55 1
    18    55    22 2
    19    22    21 1
    20    21    20 1
    21    20    19 1
    22    19    18 1
    23    18    16 1
    24     4    24 1
    25     4    25 1
    26     5    26 1
    27     5    27 1
    28     6    28 1
    29     6    29 1
    30     7    30 1
    31     8    31 1
    32     9    32 1
    33    10    33 1
    34    11    34 1
    35    12    35 1
    36    13    36 1
    37    14    37 1
    38    15    38 1
    39    17    39 1
    40    23    40 1
    41    23    41 1
    42    55    42 1
    43    22    43 1
    44    21    44 1
    45    21    45 1
    46    20    46 1
    47    20    47 1
    48    19    51 1
    49    19    52 1
    50    18    53 1
    51    18    54 1
    52    16    48 1
    53    16    49 1
    54    16    50 1
@<TRIPOS>SUBSTRUCTURE
     1 LTB         1 TEMP              0 ****  ****    0 ROOT
