@<TRIPOS>MOLECULE
LTB
   55    54     1     0     0
SMALL
bcc


@<TRIPOS>ATOM
      1 O1         -0.4350   -2.6970   -0.9420 o         1 LTB     -0.848800
      2 C1         -0.4280   -1.5020   -0.5270 c         1 LTB      0.909600
      3 O2         -1.0740   -1.0970    0.4810 o         1 LTB     -0.848800
      4 C2          0.4350   -0.4730   -1.2830 c3        1 LTB     -0.197400
      5 C3          0.3230   -0.6660   -2.7750 c3        1 LTB     -0.071400
      6 C4          1.3550    0.1420   -3.5310 c3        1 LTB     -0.115400
      7 C5          1.2660   -0.1070   -5.0370 c3        1 LTB      0.161300
      8 O3          1.8760   -1.3470   -5.4000 oh        1 LTB     -0.622800
      9 C6          1.9740    0.9530   -5.8170 c2        1 LTB     -0.109200
     10 C7          1.5260    2.2000   -6.0160 ce        1 LTB     -0.180000
     11 C8          0.2810    2.7260   -5.5010 ce        1 LTB     -0.080000
     12 C9         -0.1320    3.9870   -5.7330 cf        1 LTB     -0.180000
     13 C10        -1.3720    4.5060   -5.2010 cf        1 LTB     -0.099000
     14 C11        -1.9560    5.6710   -5.5110 c2        1 LTB     -0.218200
     15 C12        -1.4980    6.6990   -6.4920 c3        1 LTB      0.182300
     16 C20         5.4720   12.7870   -5.5230 c3        1 LTB     -0.092100
     17 O12        -1.3040    6.1840   -7.8020 oh        1 LTB     -0.604800
     18 C19         4.2330   12.4110   -4.7530 c3        1 LTB     -0.080400
     19 C18         3.4790   11.2860   -5.4290 c3        1 LTB     -0.080400
     20 C17         2.2360   10.9110   -4.6520 c3        1 LTB     -0.076400
     21 C16         1.4840    9.7850   -5.3320 c3        1 LTB     -0.048200
     22 C15         0.2640    9.3950   -4.5870 c2        1 LTB     -0.179200
     23 C13        -0.2310    7.4230   -6.0260 c3        1 LTB     -0.081200
     24 H21C        0.1200    0.5600   -0.9960 hc        1 LTB      0.022700
     25 H22C        1.4960   -0.6140   -0.9550 hc        1 LTB      0.022700
     26 H31C        0.4400   -1.7620   -2.9980 hc        1 LTB      0.045200
     27 H32C       -0.7050   -0.3710   -3.1130 hc        1 LTB      0.045200
     28 H41C        1.2000    1.2340   -3.3320 hc        1 LTB      0.046700
     29 H42C        2.3840   -0.1260   -3.1770 hc        1 LTB      0.046700
     30 H5          0.1810   -0.1540   -5.3500 h1        1 LTB      0.046700
     31 H3          1.6350   -1.9850   -4.7150 ho        1 LTB      0.422000
     32 H6          2.9350    0.6290   -6.2530 ha        1 LTB      0.135000
     33 H7          2.1340    2.9030   -6.6130 ha        1 LTB      0.115000
     34 H8         -0.3320    2.0360   -4.8920 ha        1 LTB      0.141000
     35 H9          0.4910    4.6750   -6.3290 ha        1 LTB      0.114000
     36 H10        -1.8660    3.8530   -4.4550 ha        1 LTB      0.133000
     37 H11        -2.8980    5.9420   -5.0020 ha        1 LTB      0.124000
     38 H12        -2.3170    7.4650   -6.6410 h1        1 LTB      0.067700
     39 HA         -0.8220    5.3520   -7.7270 ho        1 LTB      0.406000
     40 H131        0.1960    7.9830   -6.9030 hc        1 LTB      0.058200
     41 H132        0.5410    6.6730   -5.7040 hc        1 LTB      0.058200
     42 H14        -1.3980    8.1100   -4.3010 ha        1 LTB      0.125000
     43 H15         0.0050   10.0300   -3.7240 ha        1 LTB      0.119000
     44 H161        1.1990   10.1000   -6.3740 hc        1 LTB      0.047700
     45 H162        2.1610    8.8930   -5.4390 hc        1 LTB      0.047700
     46 H171        2.5210   10.5980   -3.6130 hc        1 LTB      0.040200
     47 H172        1.5670   11.8060   -4.5560 hc        1 LTB      0.040200
     48 H201        6.0120   13.6180   -5.0080 hc        1 LTB      0.031033
     49 H202        6.1640   11.9150   -5.6070 hc        1 LTB      0.031033
     50 H203        5.2080   13.1240   -6.5550 hc        1 LTB      0.031033
     51 H181        4.1480   10.3900   -5.5240 hc        1 LTB      0.039700
     52 H182        3.1940   11.5960   -6.4690 hc        1 LTB      0.039700
     53 H191        4.5150   12.0990   -3.7130 hc        1 LTB      0.038200
     54 H192        3.5620   13.3050   -4.6580 hc        1 LTB      0.038200
     55 C14        -0.5040    8.3480   -4.9030 c2        1 LTB     -0.161200
@<TRIPOS>BOND
     1    1    2 1   
     2    2    3 1   
     3    2    4 1   
     4    4    5 1   
     5    4   24 1   
     6    4   25 1   
     7    5    6 1   
     8    5   26 1   
     9    5   27 1   
    10    6    7 1   
    11    6   28 1   
    12    6   29 1   
    13    7    8 1   
    14    7    9 1   
    15    7   30 1   
    16    8   31 1   
    17    9   10 2   
    18    9   32 1   
    19   10   11 1   
    20   10   33 1   
    21   11   12 2   
    22   11   34 1   
    23   12   13 1   
    24   12   35 1   
    25   13   14 2   
    26   13   36 1   
    27   14   15 1   
    28   14   37 1   
    29   15   17 1   
    30   15   23 1   
    31   15   38 1   
    32   16   18 1   
    33   16   48 1   
    34   16   49 1   
    35   16   50 1   
    36   17   39 1   
    37   18   19 1   
    38   18   53 1   
    39   18   54 1   
    40   19   20 1   
    41   19   51 1   
    42   19   52 1   
    43   20   21 1   
    44   20   46 1   
    45   20   47 1   
    46   21   22 1   
    47   21   44 1   
    48   21   45 1   
    49   22   43 1   
    50   22   55 2   
    51   23   40 1   
    52   23   41 1   
    53   23   55 1   
    54   42   55 1   
@<TRIPOS>SUBSTRUCTURE
     1 LTB         1 TEMP              0 ****  ****    0 ROOT
