@<TRIPOS>MOLECULE
LTF
   42    43     1     0     0
SMALL
bcc


@<TRIPOS>ATOM
      1 CAO          0.0000     0.0000     0.0000 c3         1 LTF       0.006900
      2 CAN          1.5310     0.0000     0.0000 c3         1 LTF      -0.026400
      3 CAK          2.0400     0.0000     1.4420 c3         1 LTF       0.031900
      4 CAJ          3.5470     0.0010     1.4430 ca         1 LTF      -0.087300
      5 CAI          4.2360    -1.1910     1.5420 ca         1 LTF      -0.097000
      6 CAM          4.2390     1.1980     1.3390 ca         1 LTF       0.105100
      7 OAV          3.5570     2.3680     1.2360 os         1 LTF      -0.324900
      8 CAP          3.2310     3.0380     2.4560 c3         1 LTF       0.252700
      9 CAL          5.6330     1.2030     1.3390 ca         1 LTF       0.121100
     10 OAU          6.3090     2.3780     1.2360 os         1 LTF      -0.294900
     11 CAQ          7.7360     2.3090     1.2430 c3         1 LTF       0.237700
     12 CAH          6.3280     0.0130     1.4410 ca         1 LTF      -0.155000
     13 CAG          5.6310    -1.1930     1.5420 ca         1 LTF      -0.098900
     14 CAF          6.3690    -2.4690     1.6470 ce         1 LTF       0.666200
     15 N            7.6650    -2.5390     1.6540 n2         1 LTF      -0.607900
     16 OAR          5.7590    -3.6670     1.7530 os         1 LTF      -0.404400
     17 CB           6.7300    -4.6850     1.4310 c3         1 LTF       0.189400
     18 CA           8.0550    -3.9580     1.7610 c3         1 LTF       0.029500
     19 C            8.5090    -4.2780     3.1630 c          1 LTF       0.567100
     20 O            8.3040    -3.4900     4.0610 o          1 LTF      -0.584100
     21 NAB          9.1420    -5.4410     3.4170 ns         1 LTF      -0.063400
     22 OAS          9.5690    -5.7410     4.7320 oh         1 LTF      -0.435100
     23 H1          -0.3610     0.9090     0.4660 hc         1 LTF      -0.000300
     24 H2          -0.3610    -0.8580     0.5540 hc         1 LTF      -0.000300
     25 H3          -0.3610    -0.0510    -1.0200 hc         1 LTF      -0.000300
     26 H4           1.8920     0.8850    -0.5110 hc         1 LTF       0.019200
     27 H5           1.8920    -0.8850    -0.5110 hc         1 LTF       0.019200
     28 H6           1.6780     0.8840     1.9530 hc         1 LTF       0.021200
     29 H7           1.6790    -0.8850     1.9530 hc         1 LTF       0.021200
     30 H8           3.6930    -2.1250     1.6200 ha         1 LTF       0.121000
     31 H9           3.8790     3.8980     2.5800 h1         1 LTF      -0.007633
     32 H10          3.3690     2.3600     3.2890 h1         1 LTF      -0.007633
     33 H11          2.1990     3.3660     2.4230 h1         1 LTF      -0.007633
     34 H12          8.0700     1.8270     2.1540 h1         1 LTF       0.000700
     35 H13          8.1460     3.3100     1.1920 h1         1 LTF       0.000700
     36 H14          8.0740     1.7360     0.3880 h1         1 LTF       0.000700
     37 H15          7.4110     0.0150     1.4410 ha         1 LTF       0.148000
     38 H19          6.5990    -5.5560     2.0620 h1         1 LTF       0.024200
     39 H20          6.6830    -4.9450     0.3810 h1         1 LTF       0.024200
     40 H21          8.8190    -4.2030     1.0330 h1         1 LTF       0.047700
     41 H22          9.3430    -6.0750     2.6690 hn         1 LTF       0.151500
     42 H23         10.1200    -6.5060     4.7170 ho         1 LTF       0.392000
@<TRIPOS>BOND
     1     1     2 1   
     2     1    23 1   
     3     1    24 1   
     4     1    25 1   
     5     2     3 1   
     6     2    26 1   
     7     2    27 1   
     8     3     4 1   
     9     3    28 1   
    10     3    29 1   
    11     4     5 ar  
    12     4     6 ar  
    13     5    13 ar  
    14     5    30 1   
    15     6     7 1   
    16     6     9 ar  
    17     7     8 1   
    18     8    31 1   
    19     8    32 1   
    20     8    33 1   
    21     9    10 1   
    22     9    12 ar  
    23    10    11 1   
    24    11    34 1   
    25    11    35 1   
    26    11    36 1   
    27    12    13 ar  
    28    12    37 1   
    29    13    14 1   
    30    14    15 2   
    31    14    16 1   
    32    15    18 1   
    33    16    17 1   
    34    17    18 1   
    35    17    38 1   
    36    17    39 1   
    37    18    19 1   
    38    18    40 1   
    39    19    20 2   
    40    19    21 1   
    41    21    22 1   
    42    21    41 1   
    43    22    42 1   
@<TRIPOS>SUBSTRUCTURE
     1 LTF         1 TEMP              0 ****  ****    0 ROOT
