@<TRIPOS>MOLECULE
LTG
   24    21     1     0     0
SMALL
bcc


@<TRIPOS>ATOM
      1 C5          1.2020    0.5280   -0.1260 c3        1 LTG      0.080400
      2 C4          1.9380    0.3010    1.1940 c3        1 LTG      0.080400
      3 O4          2.1730   -1.0790    1.4100 oh        1 LTG     -0.618800
      4 C3          5.8720   -0.1140    2.2830 c         1 LTG      0.488900
      5 O3          5.2630    0.6840    1.5760 o         1 LTG     -0.487100
      6 C2          5.4970   -0.3870    3.7120 c         1 LTG      0.425100
      7 O5          1.0750   -0.6830   -0.8490 oh        1 LTG     -0.618800
      8 C1          4.2840   -1.2580    3.9120 c3        1 LTG      0.027400
      9 O1          3.7610   -1.1710    5.2170 oh        1 LTG     -0.578800
     10 C6         -2.1030   -0.1940   -1.2090 c         1 LTG      0.558700
     11 O6         -2.1740    0.7200   -0.3890 o         1 LTG     -0.535100
     12 H1          1.7380    1.2920   -0.7470 h1        1 LTG      0.062950
     13 H2          0.1420    0.8630    0.0440 h1        1 LTG      0.062950
     14 H3          1.3540    0.7300    2.0490 h1        1 LTG      0.062950
     15 H4          2.9650    0.7590    1.1770 h1        1 LTG      0.062950
     16 H5          6.7450   -0.6980    1.9160 h4        1 LTG      0.023200
     17 H6          1.9600   -1.0600   -0.9390 ho        1 LTG      0.412500
     18 H7          4.5650   -2.3220    3.6760 h1        1 LTG      0.089700
     19 H8          3.4450   -0.9320    3.2300 h1        1 LTG      0.089700
     20 H9          4.5050   -1.1990    5.8360 ho        1 LTG      0.415000
     21 H10         1.3190   -1.5280    1.3560 ho        1 LTG      0.412500
     22 H11        -1.1370   -0.6780   -1.4710 h4        1 LTG     -0.010800
     23 H12        -3.0040   -0.5830   -1.7300 h4        1 LTG     -0.010800
     24 O2          6.1650    0.0430    4.6550 o         1 LTG     -0.497100
@<TRIPOS>BOND
     1    1    2 1   
     2    1    7 1   
     3    1   12 1   
     4    1   13 1   
     5    2    3 1   
     6    2   14 1   
     7    2   15 1   
     8    3   21 1   
     9    4    5 2   
    10    4    6 1   
    11    4   16 1   
    12    6    8 1   
    13    6   24 2   
    14    7   17 1   
    15    8    9 1   
    16    8   18 1   
    17    8   19 1   
    18    9   20 1   
    19   10   11 2   
    20   10   22 1   
    21   10   23 1   
@<TRIPOS>SUBSTRUCTURE
     1 LTG         1 TEMP              0 ****  ****    0 ROOT
