@<TRIPOS>MOLECULE
molecule
   24    23     1     0     0
SMALL
bcc


@<TRIPOS>ATOM
      1 C5           1.5300     0.0000     0.0000 c3         1 LTG       0.140100
      2 C4           2.0400     0.0000     1.4420 c3         1 LTG       0.163100
      3 O4           1.4700    -1.1030     2.1490 oh         1 LTG      -0.596800
      4 C3           3.5650    -0.1260     1.4440 c3         1 LTG       0.052100
      5 O3           4.1350     0.9780     0.7380 oh         1 LTG      -0.584800
      6 C2           4.0670    -0.1270     2.8650 c          1 LTG       0.523100
      7 O5           2.0060    -1.1670    -0.6740 oh         1 LTG      -0.596800
      8 C1           4.0000    -1.3870     3.6880 c3         1 LTG       0.041400
      9 O1           4.5330    -1.1340     4.9900 oh         1 LTG      -0.588800
     10 C6           0.0000     0.0000     0.0000 c3         1 LTG       0.111400
     11 O6          -0.4760     0.1180    -1.3410 oh         1 LTG      -0.612800
     12 H1           1.8920     0.8840    -0.5110 h1         1 LTG       0.065700
     13 H2           1.7540     0.9260     1.9260 h1         1 LTG       0.060700
     14 H3           0.8150    -0.7870     2.7490 ho         1 LTG       0.408000
     15 H4           3.8520    -1.0510     0.9600 h1         1 LTG       0.076700
     16 H5           5.0020     0.7500     0.4450 ho         1 LTG       0.416000
     17 H6           2.1030    -0.9820    -1.5930 ho         1 LTG       0.413000
     18 H7           2.9680    -1.7060     3.7760 h1         1 LTG       0.052700
     19 H8           4.5790    -2.1650     3.2060 h1         1 LTG       0.052700
     20 H9           4.6450    -1.9510     5.4470 ho         1 LTG       0.404000
     21 H10         -0.3610     0.8360     0.5860 h1         1 LTG       0.032200
     22 H11         -0.3610    -0.9260     0.4310 h1         1 LTG       0.032200
     23 H12         -1.4100     0.2490    -1.3330 ho         1 LTG       0.407000
     24 O2           4.5240     0.8840     3.3440 o          1 LTG      -0.470100
@<TRIPOS>BOND
     1     5     4 1
     2    10     1 1
     3    10    11 1
     4     1     7 1
     5     1     2 1
     6     4     2 1
     7     4     6 1
     8     2     3 1
     9    24     6 2
    10     6     8 1
    11     8     9 1
    12     1    12 1
    13     2    13 1
    14     3    14 1
    15     4    15 1
    16     5    16 1
    17     7    17 1
    18     8    18 1
    19     8    19 1
    20     9    20 1
    21    10    21 1
    22    10    22 1
    23    11    23 1
@<TRIPOS>SUBSTRUCTURE
     1 LTG         1 TEMP              0 ****  ****    0 ROOT
