@<TRIPOS>MOLECULE
LTH
   16    15     1     0     0
SMALL
bcc


@<TRIPOS>ATOM
      1 O1         -0.0080    0.4380    0.1200 o         1 LTH     -0.830300
      2 C1          1.1440   -0.0580    0.1570 c         1 LTH      0.892600
      3 O           1.7160   -0.6780   -0.7910 o         1 LTH     -0.830300
      4 C2          1.9760    0.0550    1.4640 c3        1 LTH     -0.019900
      5 O2          3.3320    0.3440    1.1680 oh        1 LTH     -0.627800
      6 C3          1.8800   -1.2730    2.2290 c3        1 LTH      0.096100
      7 O3          2.4680   -2.3520    1.5120 oh        1 LTH     -0.655800
      8 C4          2.6220   -1.1890    3.5650 c3        1 LTH      0.130400
      9 O4          2.6220   -2.4250    4.2580 oh        1 LTH     -0.630800
     10 H2          1.6140    0.8970    2.1070 h1        1 LTH      0.061700
     11 H3          3.5220   -0.0920    0.3220 ho        1 LTH      0.418000
     12 H4          0.7950   -1.5200    2.4040 h1        1 LTH      0.045700
     13 H5          2.3490   -2.1660    0.5650 ho        1 LTH      0.451000
     14 H6          2.1060   -0.4660    4.2490 h1        1 LTH      0.041700
     15 H7          3.6800   -0.8600    3.3850 h1        1 LTH      0.041700
     16 H8          2.8290   -3.1080    3.6080 ho        1 LTH      0.414000
@<TRIPOS>BOND
     1    1    2 1   
     2    2    3 1   
     3    2    4 1   
     4    4    5 1   
     5    4    6 1   
     6    4   10 1   
     7    5   11 1   
     8    6    7 1   
     9    6    8 1   
    10    6   12 1   
    11    7   13 1   
    12    8    9 1   
    13    8   14 1   
    14    8   15 1   
    15    9   16 1   
@<TRIPOS>SUBSTRUCTURE
     1 LTH         1 TEMP              0 ****  ****    0 ROOT
