@<TRIPOS>MOLECULE
molecule
   16    15     1     0     0
SMALL
bcc


@<TRIPOS>ATOM
      1 O1           0.0000     0.0000     0.0000 o          1 LTH      -0.838300
      2 C1           1.3420     0.0000     0.0000 c          1 LTH       0.880600
      3 O            1.9470     0.0010    -1.0450 o          1 LTH      -0.838300
      4 C2           2.0940     0.0000     1.3060 c3         1 LTH       0.037100
      5 O2           3.4950     0.1180     1.0490 oh         1 LTH      -0.601800
      6 C3           1.8210    -1.3070     2.0530 c3         1 LTH       0.180100
      7 O3           2.1460    -2.4140     1.2080 oh         1 LTH      -0.575800
      8 C4           2.6810    -1.3620     3.3170 c3         1 LTH       0.106400
      9 O4           2.3420    -2.5260     4.0730 oh         1 LTH      -0.623800
     10 H2           1.7660     0.8360     1.9110 h1         1 LTH       0.015700
     11 H3           3.7240     1.0290     0.9630 ho         1 LTH       0.381000
     12 H4           0.7740    -1.3560     2.3250 h1         1 LTH       0.056700
     13 H5           1.4860    -3.0820     1.2970 ho         1 LTH       0.389000
     14 H6           3.7280    -1.4020     3.0410 h1         1 LTH       0.025200
     15 H7           2.4990    -0.4770     3.9160 h1         1 LTH       0.025200
     16 H8           2.7920    -2.5060     4.9010 ho         1 LTH       0.381000
@<TRIPOS>BOND
     1     7     6 1
     2     3     2 1
     3     1     2 1
     4     2     4 1
     5     6     4 1
     6     6     8 1
     7     5     4 1
     8     8     9 1
     9     4    10 1
    10     5    11 1
    11     6    12 1
    12     7    13 1
    13     8    14 1
    14     8    15 1
    15     9    16 1
@<TRIPOS>SUBSTRUCTURE
     1 LTH         1 TEMP              0 ****  ****    0 ROOT
