@<TRIPOS>MOLECULE
molecule
   44    46     1     0     0
SMALL
bcc


@<TRIPOS>ATOM
      1 C22          0.0000     0.0000     0.0000 ca         1 LTI      -0.096000
      2 C21          1.3830     0.0000     0.0000 ca         1 LTI      -0.110000
      3 C23         -0.6920     0.0020     1.1970 ca         1 LTI      -0.104000
      4 C20          2.0750     0.0000     1.1970 ca         1 LTI      -0.156000
      5 C5           1.5910    -3.9910     4.3010 cc         1 LTI      -0.467800
      6 C18          0.0070     0.0030     2.3910 ca         1 LTI      -0.071300
      7 C19          1.3770     0.0010     2.3910 ca         1 LTI      -0.147300
      8 C1           1.9010    -2.7210     3.8600 cd         1 LTI       0.272600
      9 C4           2.0100    -5.0140     3.4240 cc         1 LTI       0.530500
     10 C17         -0.7540     0.0030     3.7010 c3         1 LTI      -0.057100
     11 C16         -0.5810     1.3730     4.3620 c3         1 LTI      -0.080400
     12 C15          0.6940     1.4230     5.1800 c3         1 LTI      -0.089400
     13 C14          1.9680     1.3720     4.3610 c3         1 LTI      -0.056400
     14 C13          2.1390     0.0000     3.7000 c3         1 LTI      -0.005300
     15 N2           2.5420    -2.6390     2.6880 na         1 LTI      -0.601100
     16 N12          0.6240    -5.5200     5.9330 nz         1 LTI      -0.715400
     17 N9           2.1430    -8.5050     2.8210 nz         1 LTI      -0.639400
     18 N6           1.8490    -6.3320     3.5850 nf         1 LTI      -0.870100
     19 O11          0.5650    -3.3260     6.2800 o          1 LTI      -0.428100
     20 O8           2.8680    -6.7480     1.6670 o          1 LTI      -0.543100
     21 S3           2.7700    -4.2130     2.1060 ss         1 LTI       0.436100
     22 S24          1.4760    -1.2860     4.7880 ss         1 LTI       0.084300
     23 H22         -0.5410    -0.0000    -0.9380 ha         1 LTI       0.160000
     24 H21          1.9240    -0.0010    -0.9380 ha         1 LTI       0.157000
     25 H23         -1.7760     0.0020     1.2000 ha         1 LTI       0.157000
     26 H20          3.1590     0.0000     1.1990 ha         1 LTI       0.134000
     27 H171        -0.3580    -0.7670     4.3520 hc         1 LTI       0.059700
     28 H172        -1.8050    -0.1780     3.5110 hc         1 LTI       0.059700
     29 H13          3.1890    -0.1820     3.5090 h1         1 LTI       0.084700
     30 H2           2.8350    -1.7960     2.2350 hn         1 LTI       0.542800
     31 H121         1.5910    -5.4160     5.6960 hn         1 LTI       0.502467
     32 H122         0.4160    -5.6750     6.8990 hn         1 LTI       0.502467
     33 H91N         1.1680    -8.7150     2.9030 hn         1 LTI       0.486133
     34 H92N         2.5190    -8.9720     2.0200 hn         1 LTI       0.486133
     35 H161        -0.5380     2.1350     3.5920 hc         1 LTI       0.072700
     36 H162        -1.4270     1.5630     5.0110 hc         1 LTI       0.072700
     37 H151         0.6940     0.5830     5.8640 hc         1 LTI       0.057700
     38 H152         0.6950     2.3410     5.7550 hc         1 LTI       0.057700
     39 H141         1.9070     2.1230     3.5830 hc         1 LTI       0.084200
     40 H142         2.8090     1.5420     5.0220 hc         1 LTI       0.084200
     41 H123         0.0640    -6.0500     5.2950 hn         1 LTI       0.502467
     42 H93          2.6170    -8.7900     3.6560 hn         1 LTI       0.486133
     43 C10          0.8960    -4.2530     5.5630 c          1 LTI       0.526300
     44 C7           2.3050    -7.1770     2.6590 c          1 LTI       0.637500
@<TRIPOS>BOND
     1     1     2 ar
     2     1     3 ar
     3     2     4 ar
     4     3     6 ar
     5     4     7 ar
     6     5     8 2
     7     5     9 1
     8     5    43 1
     9     6     7 ar
    10     6    10 1
    11     7    14 1
    12     8    15 1
    13     8    22 1
    14    14    22 1
    15     9    18 2
    16     9    21 1
    17    43    16 1
    18    43    19 2
    19    44    17 1
    20    44    18 1
    21    44    20 2
    22    10    11 1
    23    11    12 1
    24    12    13 1
    25    13    14 1
    26    15    21 1
    27     1    23 1
    28     2    24 1
    29     3    25 1
    30     4    26 1
    31    10    27 1
    32    10    28 1
    33    14    29 1
    34    15    30 1
    35    16    31 1
    36    16    32 1
    37    17    33 1
    38    17    34 1
    39    11    35 1
    40    11    36 1
    41    12    37 1
    42    12    38 1
    43    13    39 1
    44    13    40 1
    45    41    16 1
    46    42    17 1
@<TRIPOS>SUBSTRUCTURE
     1 LTI         1 TEMP              0 ****  ****    0 ROOT
