@<TRIPOS>MOLECULE
LTI
   44    46     1     0     0
SMALL
bcc


@<TRIPOS>ATOM
      1 C22          0.0000     0.0000     0.0000 ca         1 LTI      -0.061000
      2 C21          1.3830     0.0000     0.0000 ca         1 LTI      -0.078000
      3 C23         -0.6920     0.0020     1.1970 ca         1 LTI      -0.073000
      4 C20          2.0750     0.0000     1.1970 ca         1 LTI      -0.127000
      5 C5           1.5910    -3.9910     4.3010 cc         1 LTI      -0.474800
      6 C18          0.0070     0.0030     2.3910 ca         1 LTI      -0.063300
      7 C19          1.3770     0.0010     2.3910 ca         1 LTI      -0.175300
      8 C1           1.9010    -2.7210     3.8600 cd         1 LTI       0.185600
      9 C4           2.0100    -5.0140     3.4240 cc         1 LTI       0.604500
     10 C17         -0.7540     0.0030     3.7010 c3         1 LTI      -0.035100
     11 C16         -0.5810     1.3730     4.3620 c3         1 LTI      -0.018400
     12 C15          0.6940     1.4230     5.1800 c3         1 LTI      -0.043400
     13 C14          1.9680     1.3720     4.3610 c3         1 LTI       0.002600
     14 C13          2.1390     0.0000     3.7000 c3         1 LTI       0.105700
     15 N2           2.5420    -2.6390     2.6880 na         1 LTI      -0.131100
     16 N12          0.6240    -5.5200     5.9330 nz         1 LTI       0.103600
     17 N9           2.1430    -8.5050     2.8210 nz         1 LTI       0.262600
     18 N6           1.8490    -6.3320     3.5850 nf         1 LTI      -0.815100
     19 O11          0.5650    -3.3260     6.2800 o          1 LTI      -0.432100
     20 O8           2.8680    -6.7480     1.6670 o          1 LTI      -0.535100
     21 S3           2.7700    -4.2130     2.1060 ss         1 LTI       0.143100
     22 S24          1.4760    -1.2860     4.7880 ss         1 LTI      -0.081700
     23 H22         -0.5410    -0.0000    -0.9380 ha         1 LTI       0.127000
     24 H21          1.9240    -0.0010    -0.9380 ha         1 LTI       0.126000
     25 H23         -1.7760     0.0020     1.2000 ha         1 LTI       0.128000
     26 H20          3.1590     0.0000     1.1990 ha         1 LTI       0.113000
     27 H171        -1.8050    -0.1780     3.5110 hc         1 LTI       0.047700
     28 H172        -0.3580    -0.7670     4.3520 hc         1 LTI       0.047700
     29 H13          3.1890    -0.1820     3.5090 h1         1 LTI       0.056700
     30 H2           2.8350    -1.7960     2.2350 hn         1 LTI       0.405800
     31 H121         1.5910    -5.4160     5.6960 hn         1 LTI       0.282467
     32 H122         0.4160    -5.6750     6.8990 hn         1 LTI       0.282467
     33 H91N         2.6190    -8.8000     3.6510 hn         1 LTI       0.243133
     34 H92N         1.1700    -8.7260     2.8980 hn         1 LTI       0.243133
     35 H161        -0.5380     2.1350     3.5920 hc         1 LTI       0.039200
     36 H162        -1.4270     1.5630     5.0110 hc         1 LTI       0.039200
     37 H151         0.6950     2.3410     5.7550 hc         1 LTI       0.035200
     38 H152         0.6940     0.5830     5.8640 hc         1 LTI       0.035200
     39 H141         2.8090     1.5420     5.0220 hc         1 LTI       0.050700
     40 H142         1.9070     2.1230     3.5830 hc         1 LTI       0.050700
     41 H123         0.0670    -6.0640     5.3040 hn         1 LTI       0.282467
     42 H93          2.5380    -8.9700     2.0280 hn         1 LTI       0.243133
     43 C10          0.8960    -4.2530     5.5630 c          1 LTI       0.407300
     44 C7           2.3050    -7.1770     2.6590 c          1 LTI       0.453500
@<TRIPOS>BOND
     1     1     2 ar  
     2     1     3 ar  
     3     1    23 1   
     4     2     4 ar  
     5     2    24 1   
     6     3     6 ar  
     7     3    25 1   
     8     4     7 ar  
     9     4    26 1   
    10     5     8 2   
    11     5     9 1   
    12     5    43 1   
    13     6     7 ar  
    14     6    10 1   
    15     7    14 1   
    16     8    15 1   
    17     8    22 1   
    18     9    18 2   
    19     9    21 1   
    20    10    11 1   
    21    10    27 1   
    22    10    28 1   
    23    11    12 1   
    24    11    35 1   
    25    11    36 1   
    26    12    13 1   
    27    12    37 1   
    28    12    38 1   
    29    13    14 1   
    30    13    39 1   
    31    13    40 1   
    32    14    22 1   
    33    14    29 1   
    34    15    21 1   
    35    15    30 1   
    36    16    31 1   
    37    16    32 1   
    38    16    41 1   
    39    16    43 1   
    40    17    33 1   
    41    17    34 1   
    42    17    42 1   
    43    17    44 1   
    44    18    44 1   
    45    19    43 2   
    46    20    44 2   
@<TRIPOS>SUBSTRUCTURE
     1 LTI         1 TEMP              0 ****  ****    0 ROOT
