@<TRIPOS>MOLECULE
molecule
   26    25     1     0     0
SMALL
bcc


@<TRIPOS>ATOM
      1 C1           0.0000     0.0000     0.0000 c3         1 LTL      -0.121100
      2 C2           1.5300     0.0000     0.0000 c3         1 LTL       0.144800
      3 C6           2.0420     0.0000     1.4410 c3         1 LTL      -0.054400
      4 C7           3.5700     0.0010     1.4400 c3         1 LTL      -0.181400
      5 C10          4.0740    -0.0010     2.8610 c          1 LTL       0.561100
      6 C13          5.5540     0.0010     3.1360 c3         1 LTL      -0.185400
      7 C14          5.7940     0.0000     4.6470 c3         1 LTL      -0.082100
      8 O20          3.2890    -0.0010     3.7790 o          1 LTL      -0.530100
      9 O21          2.0050    -1.1660    -0.6740 oh         1 LTL      -0.606800
     10 C22          2.0400     1.2490    -0.7220 c3         1 LTL      -0.121100
     11 HC11        -0.3610    -0.9010     0.4810 hc         1 LTL       0.042367
     12 HC12        -0.3610     0.8670     0.5400 hc         1 LTL       0.042367
     13 HC13        -0.3610     0.0340    -1.0210 hc         1 LTL       0.042367
     14 HC61         1.6800     0.8840     1.9520 hc         1 LTL       0.062200
     15 HC62         1.6810    -0.8850     1.9520 hc         1 LTL       0.062200
     16 HC71         3.9320    -0.8830     0.9280 hc         1 LTL       0.072700
     17 HC72         3.9310     0.8860     0.9310 hc         1 LTL       0.072700
     18 H131         6.0040    -0.8830     2.6990 hc         1 LTL       0.062700
     19 H132         6.0020     0.8860     2.6990 hc         1 LTL       0.062700
     20 H141         5.3470    -0.8850     5.0830 hc         1 LTL       0.041367
     21 H142         6.8590     0.0010     4.8440 hc         1 LTL       0.041367
     22 H143         5.3450     0.8850     5.0840 hc         1 LTL       0.041367
     23 H21          1.5210    -1.2860    -1.4740 ho         1 LTL       0.403000
     24 H221         3.0680     1.0960    -1.0260 hc         1 LTL       0.042367
     25 H222         1.4280     1.4360    -1.5960 hc         1 LTL       0.042367
     26 H223         1.9840     2.1000    -0.0540 hc         1 LTL       0.042367
@<TRIPOS>BOND
     1     1     2 1
     2     1    11 1
     3     1    12 1
     4     1    13 1
     5     2     3 1
     6     2     9 1
     7     2    10 1
     8     3     4 1
     9     3    14 1
    10     3    15 1
    11     4     5 1
    12     4    16 1
    13     4    17 1
    14     5     6 1
    15     5     8 2
    16     6     7 1
    17     6    18 1
    18     6    19 1
    19     7    20 1
    20     7    21 1
    21     7    22 1
    22     9    23 1
    23    10    24 1
    24    10    25 1
    25    10    26 1
@<TRIPOS>SUBSTRUCTURE
     1 LTL         1 TEMP              0 ****  ****    0 ROOT
