@<TRIPOS>MOLECULE
LTL
   26    25     1     0     0
SMALL
bcc


@<TRIPOS>ATOM
      1 C1          0.0510   -0.2050   -0.0780 c3        1 LTL     -0.123600
      2 C2          1.5560    0.0420   -0.0200 c3        1 LTL      0.147800
      3 C6          2.0170    0.0310    1.4400 c3        1 LTL     -0.059400
      4 C7          3.5190    0.1240    1.5790 c3        1 LTL     -0.181400
      5 C10         3.9700    0.0270    3.0090 c         1 LTL      0.565100
      6 C13         5.4390   -0.2450    3.1760 c3        1 LTL     -0.182400
      7 C14         5.9430    0.0810    4.5580 c3        1 LTL     -0.088100
      8 O20         3.2000    0.1560    3.9660 o         1 LTL     -0.535100
      9 O21         2.2480   -1.0280   -0.6670 oh        1 LTL     -0.602800
     10 C22         1.8900    1.3620   -0.7050 c3        1 LTL     -0.123600
     11 HC11       -0.3030   -0.1890   -1.1370 hc        1 LTL      0.043700
     12 HC12       -0.4870    0.5860    0.4940 hc        1 LTL      0.043700
     13 HC13       -0.1890   -1.2020    0.3630 hc        1 LTL      0.043700
     14 HC61        1.6640   -0.9190    1.9210 hc        1 LTL      0.060700
     15 HC62        1.5300    0.8850    1.9770 hc        1 LTL      0.060700
     16 HC71        4.0030   -0.6940    0.9800 hc        1 LTL      0.073700
     17 HC72        3.8870    1.1030    1.1690 hc        1 LTL      0.073700
     18 H131        6.0090    0.3440    2.4090 hc        1 LTL      0.063200
     19 H132        5.6070   -1.3340    2.9540 hc        1 LTL      0.063200
     20 H141        5.3440   -0.4630    5.3280 hc        1 LTL      0.042700
     21 H142        5.8520    1.1760    4.7600 hc        1 LTL      0.042700
     22 H143        7.0150   -0.2140    4.6570 hc        1 LTL      0.042700
     23 H21         1.9260   -1.0580   -1.5750 ho        1 LTL      0.399000
     24 H221        1.4380    1.3930   -1.7260 hc        1 LTL      0.043700
     25 H222        1.4890    2.2150   -0.1090 hc        1 LTL      0.043700
     26 H223        2.9950    1.4740   -0.8060 hc        1 LTL      0.043700
@<TRIPOS>BOND
     1    1    2 1   
     2    1   11 1   
     3    1   12 1   
     4    1   13 1   
     5    2    3 1   
     6    2    9 1   
     7    2   10 1   
     8    3    4 1   
     9    3   14 1   
    10    3   15 1   
    11    4    5 1   
    12    4   16 1   
    13    4   17 1   
    14    5    6 1   
    15    5    8 2   
    16    6    7 1   
    17    6   18 1   
    18    6   19 1   
    19    7   20 1   
    20    7   21 1   
    21    7   22 1   
    22    9   23 1   
    23   10   24 1   
    24   10   25 1   
    25   10   26 1   
@<TRIPOS>SUBSTRUCTURE
     1 LTL         1 TEMP              0 ****  ****    0 ROOT
