@<TRIPOS>MOLECULE
LTN
   30    31     1     0     0
SMALL
bcc


@<TRIPOS>ATOM
      1 NH3          0.0000     0.0000     0.0000 nz         1 LTN       0.094400
      2 CA           1.4680     0.0000     0.0000 c3         1 LTN      -0.155500
      3 CB           1.9780     0.0000     1.4420 c3         1 LTN       0.097800
      4 CG           1.4760     1.2300     2.1510 cc         1 LTN      -0.319400
      5 CD2          2.1490     2.5290     2.2280 ca         1 LTN      -0.078800
      6 CE2          1.3060     3.3600     2.9880 ca         1 LTN      -0.236200
      7 CE3          3.3460     3.0310     1.7170 ca         1 LTN      -0.099000
      8 CD1          0.3290     1.3420     2.8400 cd         1 LTN      -0.246100
      9 NE1          0.2100     2.6080     3.3460 na         1 LTN       0.450600
     10 CZ2          1.6860     4.6760     3.2300 ca         1 LTN      -0.053000
     11 CZ3          3.7000     4.3270     1.9690 ca         1 LTN      -0.054000
     12 CH2          2.8750     5.1490     2.7220 ca         1 LTN      -0.053000
     13 C            1.9700    -1.2310    -0.7100 c          1 LTN       0.312100
     14 O            1.3150    -2.2500    -0.6940 o          1 LTN      -0.370100
     15 N            3.1470    -1.1960    -1.3660 nz         1 LTN       0.218600
     16 HH31        -0.3340    -0.2820    -0.9000 hn         1 LTN       0.245133
     17 HH32        -0.3340    -0.6390     0.6940 hn         1 LTN       0.245133
     18 HA           1.8290     0.8840    -0.5110 hx         1 LTN       0.112700
     19 HB1          3.0620     0.0000     1.4410 hc         1 LTN       0.053200
     20 HB2          1.6170    -0.8840     1.9530 hc         1 LTN       0.053200
     21 HE3          3.9960     2.3950     1.1280 ha         1 LTN       0.081000
     22 HD1         -0.3950     0.5480     2.9770 h4         1 LTN       0.136000
     23 HE1         -0.5580     2.9380     3.8960 hn         1 LTN       0.140700
     24 HZ2          1.0480     5.3260     3.8170 ha         1 LTN       0.126000
     25 HZ3          4.6320     4.7150     1.5760 ha         1 LTN       0.123000
     26 HH2          3.1690     6.1740     2.9120 ha         1 LTN       0.132000
     27 HN1          3.1890    -1.9560    -2.0170 hn         1 LTN       0.266467
     28 HN2          3.8980    -1.2780    -0.7090 hn         1 LTN       0.266467
     29 HH33        -0.3340     0.9310     0.1550 hn         1 LTN       0.245133
     30 HN3          3.2240    -0.3340    -1.8690 hn         1 LTN       0.266467
@<TRIPOS>BOND
     1     1     2 1   
     2     1    16 1   
     3     1    17 1   
     4     1    29 1   
     5     2     3 1   
     6     2    13 1   
     7     2    18 1   
     8     3     4 1   
     9     3    19 1   
    10     3    20 1   
    11     4     5 1   
    12     4     8 2   
    13     5     6 ar  
    14     5     7 ar  
    15     6     9 1   
    16     6    10 ar  
    17     7    11 ar  
    18     7    21 1   
    19     8     9 1   
    20     8    22 1   
    21     9    23 1   
    22    10    12 ar  
    23    10    24 1   
    24    11    12 ar  
    25    11    25 1   
    26    12    26 1   
    27    13    14 2   
    28    13    15 1   
    29    15    27 1   
    30    15    28 1   
    31    15    30 1   
@<TRIPOS>SUBSTRUCTURE
     1 LTN         1 TEMP              0 ****  ****    0 ROOT
