@<TRIPOS>MOLECULE
molecule
   48    50     1     0     0
SMALL
bcc


@<TRIPOS>ATOM
      1 O24          0.0000     0.0000     0.0000 o          1 LTQ      -0.548100
      2 C23          1.2130     0.0000     0.0000 c          1 LTQ       0.650100
      3 N25          1.8870     0.0000     1.1660 ns         1 LTQ      -0.452400
      4 O26          1.1810     0.0000     2.3930 oh         1 LTQ      -0.361100
      5 C19          1.9660    -0.0060    -1.3070 c3         1 LTQ       0.164500
      6 C20          2.2650    -1.4710    -1.7000 c3         1 LTQ       0.044700
      7 S21          2.0920    -1.3940    -3.5330 ss         1 LTQ      -0.352200
      8 C22          0.7920    -0.0920    -3.4820 c3         1 LTQ       0.333900
      9 N18          1.1780     0.7030    -2.3030 n3         1 LTQ      -0.796500
     10 S13          0.7490     2.2920    -2.1250 s6         1 LTQ       1.546800
     11 O16         -0.4320     2.4780    -2.8920 o          1 LTQ      -0.621300
     12 O17          0.8260     2.5740    -0.7340 o          1 LTQ      -0.621300
     13 N10          1.9270     3.2020    -2.8510 n3         1 LTQ      -0.834500
     14 C11          3.1030     3.6580    -2.0950 c3         1 LTQ       0.246800
     15 C12          4.3630     3.2780    -2.8800 c3         1 LTQ       0.152300
     16 C09          1.8270     3.5710    -4.2720 c3         1 LTQ       0.246800
     17 C08          3.1400     3.1940    -4.9660 c3         1 LTQ       0.152300
     18 N07          4.2620     3.8040    -4.2470 nh         1 LTQ      -0.607000
     19 C04          5.4550     3.6200    -4.9410 ca         1 LTQ       0.093600
     20 C05          5.9520     2.3350    -5.1390 ca         1 LTQ      -0.165000
     21 C06          7.1320     2.1520    -5.8250 ca         1 LTQ      -0.089000
     22 C03          6.1430     4.7220    -5.4410 ca         1 LTQ      -0.059300
     23 C15          5.5980     6.1100    -5.2280 c3         1 LTQ      -0.035800
     24 C02          7.3230     4.5440    -6.1280 ca         1 LTQ      -0.090000
     25 C01          7.8290     3.2560    -6.3240 ca         1 LTQ      -0.018000
     26 C14          9.0560     3.0680    -7.0370 cg         1 LTQ       0.237800
     27 N27         10.0390     2.9240    -7.5870 n1         1 LTQ      -0.359800
     28 H1           2.8570     0.2470     1.1830 hn         1 LTQ       0.309500
     29 H2           1.7930    -0.0630     3.1080 ho         1 LTQ       0.399000
     30 H3           2.9060     0.5150    -1.1740 h1         1 LTQ       0.056700
     31 H4           3.2540    -1.7540    -1.3620 h1         1 LTQ       0.090700
     32 H5           1.5150    -2.1310    -1.2810 h1         1 LTQ       0.090700
     33 H6          -0.0410    -0.3720    -4.1150 h2         1 LTQ       0.089700
     34 H7           1.2050     0.8600    -3.7940 h2         1 LTQ       0.089700
     35 H8           3.1990     3.0550    -1.2000 h1         1 LTQ       0.060700
     36 H9           2.9580     4.6940    -1.8140 h1         1 LTQ       0.060700
     37 H10          4.4610     2.1990    -2.8860 h1         1 LTQ       0.047700
     38 H11          5.2260     3.7120    -2.3880 h1         1 LTQ       0.047700
     39 H12          1.4760     4.5930    -4.3450 h1         1 LTQ       0.060700
     40 H13          1.1150     2.9130    -4.7560 h1         1 LTQ       0.060700
     41 H14          3.1190     3.5670    -5.9820 h1         1 LTQ       0.047700
     42 H15          3.2300     2.1140    -4.9830 h1         1 LTQ       0.047700
     43 H16          5.3910     1.4770    -4.7900 ha         1 LTQ       0.141000
     44 H17          7.5190     1.1510    -5.9790 ha         1 LTQ       0.143000
     45 H18          5.5840     6.3340    -4.1680 hc         1 LTQ       0.049033
     46 H19          4.5910     6.1670    -5.6230 hc         1 LTQ       0.049033
     47 H20          6.2280     6.8280    -5.7400 hc         1 LTQ       0.049033
     48 H21          7.8580     5.4020    -6.5170 ha         1 LTQ       0.147000
@<TRIPOS>BOND
     1     7     6 1
     2     7     8 1
     3     6     5 1
     4     8     9 1
     5    12    10 2
     6     9     5 1
     7     9    10 1
     8     5     2 1
     9    10    11 2
    10    10    13 1
    11     2     1 2
    12     2     3 1
    13     3     4 1
    14    13    16 1
    15    13    14 1
    16    16    17 1
    17    14    15 1
    18    17    18 1
    19    15    18 1
    20    18    19 1
    21    23    22 1
    22    19    22 ar
    23    19    20 ar
    24    22    24 ar
    25    20    21 ar
    26    24    25 ar
    27    21    25 ar
    28    25    26 1
    29    26    27 3
    30     3    28 1
    31     4    29 1
    32     5    30 1
    33     6    31 1
    34     6    32 1
    35     8    33 1
    36     8    34 1
    37    14    35 1
    38    14    36 1
    39    15    37 1
    40    15    38 1
    41    16    39 1
    42    16    40 1
    43    17    41 1
    44    17    42 1
    45    20    43 1
    46    21    44 1
    47    23    45 1
    48    23    46 1
    49    23    47 1
    50    24    48 1
@<TRIPOS>SUBSTRUCTURE
     1 LTQ         1 TEMP              0 ****  ****    0 ROOT
