@<TRIPOS>MOLECULE
molecule
   49    51     1     0     0
SMALL
bcc


@<TRIPOS>ATOM
      1 C4           0.0000     0.0000     0.0000 ca         1 LTS      -0.037000
      2 C5           1.3820     0.0000     0.0000 ca         1 LTS      -0.269500
      3 C6           2.0740     0.0000     1.1970 ca         1 LTS      -0.057000
      4 C10          2.5230     1.6820    -1.9800 ca         1 LTS      -0.315500
      5 C13          2.9270     4.3250    -2.6800 ca         1 LTS      -0.067300
      6 C15          3.6620     2.3410    -1.5590 ca         1 LTS      -0.018000
      7 C20          1.4010     8.2450    -0.2300 cg         1 LTS       0.321800
      8 C24          4.4750    10.5900    -3.8670 ca         1 LTS      -0.267800
      9 C28          2.1890    10.6650    -3.1660 ca         1 LTS      -0.267800
     10 C1           1.3870     0.0000     2.3960 ca         1 LTS      -0.125000
     11 C2           0.0050     0.0000     2.4020 ca         1 LTS      -0.157000
     12 C3          -0.6920     0.0010     1.2020 ca         1 LTS       0.129100
     13 S7           2.2620    -0.0010    -1.5270 sy         1 LTS       1.289600
     14 O8           3.5450    -0.5460    -1.2500 o          1 LTS      -0.618300
     15 O9           1.3790    -0.5460    -2.4980 o          1 LTS      -0.618300
     16 C11          1.5850     2.3430    -2.7500 ca         1 LTS      -0.018000
     17 C12          1.7870     3.6650    -3.1010 ca         1 LTS      -0.124000
     18 C14          3.8670     3.6620    -1.9150 ca         1 LTS      -0.124000
     19 C16          3.1470     5.7660    -3.0620 c3         1 LTS       0.227100
     20 N17          2.5610     6.6370    -2.0400 nu         1 LTS      -0.796200
     21 C18          2.6380     7.9940    -2.1740 c2         1 LTS       0.835100
     22 N19          2.0170     8.7800    -1.3130 ne         1 LTS      -0.583700
     23 N21          0.8680     7.7970     0.6670 n1         1 LTS      -0.399800
     24 N22          3.3600     8.5410    -3.2000 nu         1 LTS      -0.688600
     25 C23          3.3420     9.9200    -3.4090 ca         1 LTS       0.073600
     26 C25          4.4150    11.9540    -4.0610 ca         1 LTS       0.427200
     27 N26          3.3040    12.6240    -3.8190 nb         1 LTS      -0.688000
     28 C27          2.2110    12.0270    -3.3850 ca         1 LTS       0.427200
     29 O29         -2.0500     0.0020     1.2050 os         1 LTS      -0.336900
     30 C30         -2.6970     0.0020     2.4800 c3         1 LTS       0.795700
     31 F31         -2.3190     1.1440     3.1940 f          1 LTS      -0.202633
     32 F32         -4.0850     0.0020     2.2990 f          1 LTS      -0.202633
     33 F33         -2.3210    -1.1410     3.1940 f          1 LTS      -0.202633
     34 H4          -0.3400     0.0380    -1.0280 ha         1 LTS       0.168000
     35 H6           3.1230    -0.2050     1.3760 ha         1 LTS       0.159000
     36 H15          4.2360     1.6470    -0.9570 ha         1 LTS       0.156000
     37 H24          5.2880    10.0570    -4.3460 ha         1 LTS       0.164000
     38 H28          1.4020    10.2270    -2.5630 ha         1 LTS       0.164000
     39 H1           1.8290    -0.2280     3.3580 ha         1 LTS       0.147000
     40 H2          -0.4500     0.1540     3.3730 ha         1 LTS       0.160000
     41 H11          0.7110     1.7600    -3.0110 ha         1 LTS       0.156000
     42 H12          1.2330     4.2120    -3.8550 ha         1 LTS       0.140500
     43 H14          4.5250     4.2840    -1.3200 ha         1 LTS       0.140500
     44 H16          4.1640     5.7520    -3.4330 h1         1 LTS       0.074700
     45 H16A         2.3810     6.1110    -3.7460 h1         1 LTS       0.074700
     46 HN17         2.7570     6.5930    -1.0590 hn         1 LTS       0.411800
     47 HN22         3.2680     8.5710    -4.1960 hn         1 LTS       0.463800
     48 H25          5.3880    12.1460    -4.4960 h4         1 LTS       0.038100
     49 H27          1.6320    12.8210    -2.9290 h4         1 LTS       0.038100
@<TRIPOS>BOND
     1     1     2 ar
     2     1    12 ar
     3     2     3 ar
     4     2    13 1
     5     3    10 ar
     6     4     6 ar
     7     4    13 1
     8     4    16 ar
     9     5    17 ar
    10     5    18 ar
    11     5    19 1
    12     6    18 ar
    13     7    22 1
    14     7    23 3
    15     8    25 ar
    16     8    26 ar
    17     9    25 ar
    18     9    28 ar
    19    10    11 ar
    20    11    12 ar
    21    12    29 1
    22    13    14 2
    23    13    15 2
    24    16    17 ar
    25    19    20 1
    26    20    21 1
    27    21    22 2
    28    21    24 1
    29    24    25 1
    30    26    27 ar
    31    27    28 ar
    32    29    30 1
    33    30    31 1
    34    30    32 1
    35    30    33 1
    36     1    34 1
    37     3    35 1
    38     6    36 1
    39     8    37 1
    40     9    38 1
    41    10    39 1
    42    11    40 1
    43    16    41 1
    44    17    42 1
    45    18    43 1
    46    19    44 1
    47    19    45 1
    48    20    46 1
    49    24    47 1
    50    26    48 1
    51    28    49 1
@<TRIPOS>SUBSTRUCTURE
     1 LTS         1 TEMP              0 ****  ****    0 ROOT
