@<TRIPOS>MOLECULE
LTS
   49    52     1     0     0
SMALL
bcc


@<TRIPOS>ATOM
      1 C4           0.0000     0.0000     0.0000 ca         1 LTS      -0.017000
      2 C5           1.3820     0.0000     0.0000 ca         1 LTS      -0.554000
      3 C6           2.0740     0.0000     1.1970 ca         1 LTS      -0.023000
      4 C10          2.5230     1.6820    -1.9800 ca         1 LTS      -0.580000
      5 C13          2.9270     4.3250    -2.6800 ca         1 LTS      -0.040000
      6 C15          3.6620     2.3410    -1.5590 ca         1 LTS       0.006000
      7 C20          1.4010     8.2450    -0.2300 c1         1 LTS      -0.084000
      8 C24          4.4750    10.5900    -3.8670 c2         1 LTS      -0.147000
      9 C28          2.1890    10.6650    -3.1660 c2         1 LTS      -0.147000
     10 C1           1.3870     0.0000     2.3960 ca         1 LTS      -0.078000
     11 C2           0.0050     0.0000     2.4020 ca         1 LTS      -0.146000
     12 C3          -0.6920     0.0010     1.2020 ca         1 LTS       0.067000
     13 S7           2.2620    -0.0010    -1.5270 s6         1 LTS       2.411000
     14 O8           3.5450    -0.5460    -1.2500 o          1 LTS      -0.866000
     15 O9           1.3790    -0.5460    -2.4980 o          1 LTS      -0.866000
     16 C11          1.5850     2.3430    -2.7500 ca         1 LTS       0.006000
     17 C12          1.7870     3.6650    -3.1010 ca         1 LTS      -0.108000
     18 C14          3.8670     3.6620    -1.9150 ca         1 LTS      -0.108000
     19 C16          3.1470     5.7660    -3.0620 c3         1 LTS      -0.015000
     20 N17          2.5610     6.6370    -2.0400 n7         1 LTS      -0.142000
     21 C18          2.6380     7.9940    -2.1740 c3         1 LTS       0.067000
     22 N19          2.0170     8.7800    -1.3130 n2         1 LTS      -0.163000
     23 N21          0.8810     7.8150     0.6830 n1         1 LTS      -0.092000
     24 N22          3.3600     8.5410    -3.2000 nu         1 LTS       0.120000
     25 C23          3.3420     9.9200    -3.4090 c2         1 LTS      -0.097000
     26 C25          4.4150    11.9540    -4.0610 c2         1 LTS      -0.047000
     27 N26          3.3040    12.6240    -3.8190 n2         1 LTS      -0.049000
     28 C27          2.2110    12.0270    -3.3850 c2         1 LTS      -0.047000
     29 O29         -2.0500     0.0020     1.2050 os         1 LTS      -0.196000
     30 C30         -2.6970     0.0020     2.4800 c3         1 LTS       0.471000
     31 F31         -2.3190     1.1440     3.1940 f          1 LTS      -0.124333
     32 F32         -4.0850     0.0020     2.2990 f          1 LTS      -0.124333
     33 F33         -2.3210    -1.1410     3.1940 f          1 LTS      -0.124333
     34 H4          -0.5420    -0.0000    -0.9380 ha         1 LTS       0.137000
     35 H6           3.1570    -0.0000     1.1960 ha         1 LTS       0.126000
     36 H15          4.3940     1.8240    -0.9510 ha         1 LTS       0.125500
     37 H24          5.3870    10.0400    -4.0660 ha         1 LTS       0.130000
     38 H28          1.2920    10.1740    -2.8090 ha         1 LTS       0.130000
     39 H1           1.9310     0.0000     3.3320 ha         1 LTS       0.114000
     40 H2          -0.5320     0.0010     3.3420 ha         1 LTS       0.132000
     41 H11          0.6930     1.8260    -3.0790 ha         1 LTS       0.125500
     42 H12          1.0500     4.1850    -3.7010 ha         1 LTS       0.111000
     43 H14          4.7600     4.1790    -1.5850 ha         1 LTS       0.111000
     44 H16          4.1990     6.0070    -2.9730 h1         1 LTS       0.065500
     45 H16A         2.8260     5.9220    -4.0850 h1         1 LTS       0.065500
     46 HN17         2.0600     7.4600    -2.3120 DU         1 LTS       0.145000
     47 HN22         3.3350     8.1220    -4.1090 hn         1 LTS       0.078000
     48 H25          5.2870    12.4890    -4.4170 h4         1 LTS       0.122000
     49 H27          1.3230    12.6190    -3.2010 h4         1 LTS       0.122000
@<TRIPOS>BOND
     1     1     2 1   
     2     1    12 1   
     3     1    34 1   
     4     2     3 1   
     5     2    13 1   
     6     3    10 1   
     7     3    35 1   
     8     4     6 1   
     9     4    13 1   
    10     4    16 1   
    11     5    17 1   
    12     5    18 1   
    13     5    19 1   
    14     6    18 1   
    15     6    36 1   
    16     7    22 1   
    17     7    23 1   
    18     8    25 1   
    19     8    26 1   
    20     8    37 1   
    21     9    25 1   
    22     9    28 1   
    23     9    38 1   
    24    10    11 1   
    25    10    39 1   
    26    11    12 1   
    27    11    40 1   
    28    12    29 1   
    29    13    14 1   
    30    13    15 1   
    31    16    17 1   
    32    16    41 1   
    33    17    42 1   
    34    18    43 1   
    35    19    20 1   
    36    19    44 1   
    37    19    45 1   
    38    20    21 1   
    39    20    46 1   
    40    21    22 1   
    41    21    24 1   
    42    21    46 1   
    43    24    25 1   
    44    24    47 1   
    45    26    27 1   
    46    26    48 1   
    47    27    28 1   
    48    28    49 1   
    49    29    30 1   
    50    30    31 1   
    51    30    32 1   
    52    30    33 1   
@<TRIPOS>SUBSTRUCTURE
     1 LTS         1 TEMP              0 ****  ****    0 ROOT
