@<TRIPOS>MOLECULE
LTT
   26    27     1     0     0
SMALL
bcc


@<TRIPOS>ATOM
      1 O1          0.0140    0.1860    0.0810 o         1 LTT     -0.616500
      2 C1          1.2450   -0.0090    0.0480 c         1 LTT      0.845900
      3 N2          2.0450    0.0160    1.1950 nc        1 LTT     -0.722100
      4 C3          3.3610   -0.2370    1.0830 cd        1 LTT      0.759500
      5 N3          4.1470   -0.2750    2.2130 nh        1 LTT     -0.918800
      6 C5          3.9910   -0.5120   -0.2110 cd        1 LTT     -0.420600
      7 C7          3.1940   -0.5090   -1.3220 cc        1 LTT      0.068600
      8 N1          1.8390   -0.2900   -1.2480 n         1 LTT     -0.401000
      9 C4          1.0320   -0.1980   -2.4480 c3        1 LTT      0.271500
     10 O3          1.4740    0.8930   -3.2850 os        1 LTT     -0.440600
     11 C2          1.9480    0.4170   -4.5390 c3        1 LTT      0.289900
     12 C8          3.3750    0.9070   -4.8090 c3        1 LTT      0.118400
     13 O4          3.7600    0.5980   -6.1280 oh        1 LTT     -0.587800
     14 O2          1.9490   -1.0080   -4.4630 os        1 LTT     -0.453600
     15 C6          1.1210   -1.4330   -3.3810 c3        1 LTT      0.098400
     16 HN31        5.1290   -0.2800    2.0980 hn        1 LTT      0.439800
     17 HN32        3.7720   -0.0030    3.0890 hn        1 LTT      0.439800
     18 H5          5.0650   -0.7120   -0.2840 ha        1 LTT      0.156000
     19 H7          3.6040   -0.6920   -2.3360 h4        1 LTT      0.161000
     20 H4         -0.0280    0.0550   -2.1460 h2        1 LTT      0.143700
     21 H2          1.2330    0.7520   -5.3410 h2        1 LTT      0.081700
     22 H81         4.0890    0.4580   -4.0700 h1        1 LTT      0.061200
     23 H82         3.4040    2.0270   -4.7410 h1        1 LTT      0.061200
     24 HO4         3.7100   -0.3630   -6.2220 ho        1 LTT      0.411000
     25 H61         0.1070   -1.6950   -3.7760 h1        1 LTT      0.077200
     26 H62         1.6170   -2.3280   -2.9340 h1        1 LTT      0.077200
@<TRIPOS>BOND
     1    1    2 2
     2    2    3 1
     3    2    8 1
     4    3    4 2
     5    4    5 1
     6    4    6 1
     7    5   16 1
     8    5   17 1
     9    6    7 2
    10    6   18 1
    11    7    8 1
    12    7   19 1
    13    8    9 1
    14    9   10 1
    15    9   15 1
    16    9   20 1
    17   10   11 1
    18   11   12 1
    19   11   14 1
    20   11   21 1
    21   12   13 1
    22   12   22 1
    23   12   23 1
    24   13   24 1
    25   14   15 1
    26   15   25 1
    27   15   26 1
@<TRIPOS>SUBSTRUCTURE
     1 LTT         1 TEMP              0 ****  ****    0 ROOT
