@<TRIPOS>MOLECULE
molecule
   27    26     1     0     0
SMALL
bcc


@<TRIPOS>ATOM
      1 O15          0.0000     0.0000     0.0000 o          1 LU0      -0.816800
      2 C14          1.3430     0.0000     0.0000 c          1 LU0       0.854600
      3 O16          1.9470    -0.0010    -1.0460 o          1 LU0      -0.816800
      4 C13          2.0960     0.0000     1.3050 c3         1 LU0       0.093500
      5 C12          1.7270     1.2500     2.1060 c3         1 LU0      -0.053400
      6 C1           2.3940     1.1900     3.4810 c3         1 LU0      -0.085700
      7 C3           1.8200     0.0150     4.2760 c3         1 LU0      -0.091100
      8 C2           2.1280     2.4940     4.2360 c3         1 LU0      -0.091100
      9 N17          3.5360     0.0000     1.0370 n7         1 LU0      -0.826100
     10 S18          4.3730    -1.4280     1.0090 s6         1 LU0       1.358800
     11 O21          5.7200    -1.0990     0.6940 o          1 LU0      -0.573800
     12 O20          4.0010    -2.1340     2.1850 o          1 LU0      -0.573800
     13 N19          3.7960    -2.3100    -0.2680 nz         1 LU0      -0.810500
     14 H2           1.8340    -0.8840     1.8730 h1         1 LU0       0.068700
     15 H3           2.0680     2.1320     1.5780 hc         1 LU0       0.074200
     16 H4           0.6510     1.2970     2.2280 hc         1 LU0       0.074200
     17 H5           3.4620     1.0550     3.3590 hc         1 LU0       0.033700
     18 H6           0.8140    -0.1950     3.9340 hc         1 LU0       0.036700
     19 H7           1.7970     0.2690     5.3290 hc         1 LU0       0.036700
     20 H8           2.4420    -0.8590     4.1280 hc         1 LU0       0.036700
     21 H9           2.6360     2.4680     5.1920 hc         1 LU0       0.036700
     22 H10          1.0620     2.6070     4.3960 hc         1 LU0       0.036700
     23 H11          2.4960     3.3300     3.6530 hc         1 LU0       0.036700
     24 H12          4.0060     0.8590     0.8260 hn         1 LU0       0.484800
     25 H13          3.8290    -1.7540    -1.0990 hn         1 LU0       0.492133
     26 H14          4.3610    -3.1270    -0.3910 hn         1 LU0       0.492133
     27 H193         2.8510    -2.5830    -0.0850 hn         1 LU0       0.492133
@<TRIPOS>BOND
     1     3     2 1
     2    11    10 2
     3     2     1 1
     4     2     4 1
     5    10    13 1
     6    10     9 1
     7    10    12 2
     8     4     9 1
     9     4     5 1
    10     8     6 1
    11     6     5 1
    12     6     7 1
    13     4    14 1
    14     5    15 1
    15     5    16 1
    16     6    17 1
    17     7    18 1
    18     7    19 1
    19     7    20 1
    20     8    21 1
    21     8    22 1
    22     8    23 1
    23     9    24 1
    24    13    25 1
    25    13    26 1
    26    27    13 1
@<TRIPOS>SUBSTRUCTURE
     1 LU0         1 TEMP              0 ****  ****    0 ROOT
