@<TRIPOS>MOLECULE
LU1
   61    67     1     0     0
SMALL
bcc


@<TRIPOS>ATOM
      1 O14          0.0000     0.0000     0.0000 o          1 LU1      -0.376000
      2 C6           1.2160     0.0000     0.0000 c2         1 LU1       0.281000
      3 C2           1.9540     0.0000     1.2780 ca         1 LU1      -0.153000
      4 C3           1.2550    -0.0010     2.4930 ca         1 LU1       0.132000
      5 O20         -0.1020    -0.0020     2.4960 oh         1 LU1      -0.213000
      6 C9           1.9560    -0.0010     3.6960 ca         1 LU1       0.020000
      7 O21          1.2780    -0.0030     4.8760 oh         1 LU1      -0.248000
      8 C10          3.3380    -0.0010     3.6940 ca         1 LU1      -0.106000
      9 C4           3.3500    -0.0060     1.2810 ca         1 LU1      -0.081000
     10 C7           4.0390    -0.0010     2.4880 cp         1 LU1      -0.035000
     11 C13          5.5230     0.0000     2.4920 cq         1 LU1      -0.045000
     12 C17          6.2180    -0.0000     3.7000 ca         1 LU1      -0.075000
     13 C24          7.5970    -0.0000     3.7010 ca         1 LU1      -0.125500
     14 C18          6.2260    -0.0050     1.2890 ca         1 LU1      -0.075000
     15 C25          7.6050    -0.0050     1.2980 ca         1 LU1      -0.125500
     16 C23          8.2920     0.0000     2.5030 ca         1 LU1       0.073000
     17 F26          9.6430    -0.0000     2.5070 f          1 LU1      -0.092000
     18 N16          1.8910    -0.0050    -1.1670 ns         1 LU1      -0.071000
     19 C27          1.1580    -0.0100    -2.4360 DU         1 LU1       0.046000
     20 C19          2.1380    -0.0150    -3.5800 c2         1 LU1      -0.080000
     21 C15          2.0690    -0.9480    -4.4970 c2         1 LU1      -0.154000
     22 C12          3.0490    -0.9530    -5.6430 DU         1 LU1       0.180000
     23 C11          3.8600    -2.2730    -5.6610 c3         1 LU1      -0.196000
     24 C8           5.1500    -1.8510    -6.4070 c3         1 LU1       0.036000
     25 O22          5.0690    -2.2130    -7.7880 oh         1 LU1      -0.292000
     26 C1           5.1910    -0.3180    -6.2530 c3         1 LU1       0.060000
     27 O5           4.0590     0.0610    -5.4520 os         1 LU1      -0.255000
     28 N28          6.4310     0.0810    -5.5830 na         1 LU1       0.277000
     29 C29          7.6440     0.3010    -6.1860 c2         1 LU1      -0.160000
     30 C30          8.5310     0.6630    -5.1520 c2         1 LU1      -0.183000
     31 N31          7.8210     0.6440    -3.9970 n2         1 LU1      -0.071000
     32 C32          6.5890     0.3100    -4.2500 c2         1 LU1      -0.183000
     33 N33          8.0970     0.2440    -7.4310 n2         1 LU1      -0.092000
     34 C36          9.3570     0.5210    -7.6960 c2         1 LU1      -0.024000
     35 N35         10.2190     0.8640    -6.7560 n2         1 LU1      -0.117000
     36 C34          9.8560     0.9470    -5.4870 c2         1 LU1       0.060000
     37 C37         10.8510     1.3390    -4.4260 c3         1 LU1      -0.066000
     38 HO20        -0.4150    -0.8270     2.8280 ho         1 LU1       0.212000
     39 HO21         1.3260     0.8540     5.2670 ho         1 LU1       0.209000
     40 H10          3.8790     0.0010     4.6330 ha         1 LU1       0.123000
     41 H4           3.8940    -0.0050     0.3450 ha         1 LU1       0.112000
     42 H17          5.6760    -0.0010     4.6380 ha         1 LU1       0.112000
     43 H24          8.1380     0.0010     4.6400 ha         1 LU1       0.122500
     44 H18          5.6900    -0.0090     0.3480 ha         1 LU1       0.112000
     45 H25          8.1520    -0.0070     0.3630 ha         1 LU1       0.122500
     46 HN16         2.8900     0.0500    -1.1670 hn         1 LU1       0.103000
     47 H27          0.5350    -0.8940    -2.4900 ha         1 LU1       0.074500
     48 H27A         0.5360     0.8750    -2.4970 ha         1 LU1       0.074500
     49 H19          2.2030    -0.6650    -2.7160 DU         1 LU1       0.016000
     50 H15          3.0920    -1.2980    -4.4260 DU         1 LU1       0.039000
     51 H12          2.5400    -0.8080    -6.5880 ha         1 LU1       0.059000
     52 H11          4.0890    -2.5970    -4.6530 hc         1 LU1       0.088000
     53 H11A         3.3320    -3.0410    -6.2120 hc         1 LU1       0.088000
     54 H8           6.0190    -2.3000    -5.9420 h1         1 LU1       0.062000
     55 HO22         5.5890    -2.9840    -7.9420 ho         1 LU1       0.201000
     56 H1           5.1240     0.1500    -7.2270 h2         1 LU1       0.113000
     57 H32          5.8040     0.2260    -3.5080 h5         1 LU1       0.165000
     58 H36          9.6990     0.4660    -8.7220 h5         1 LU1       0.138000
     59 H37         11.8080     1.5500    -4.8880 hc         1 LU1       0.061333
     60 H37A        10.4970     2.2220    -3.9080 hc         1 LU1       0.061333
     61 H37B        10.9630     0.5260    -3.7190 hc         1 LU1       0.061333
@<TRIPOS>BOND
     1     1     2 1   
     2     2     3 1   
     3     2    18 1   
     4     3     4 1   
     5     3     9 1   
     6     4     5 1   
     7     4     6 1   
     8     5    38 1   
     9     6     7 1   
    10     6     8 1   
    11     7    39 1   
    12     8    10 1   
    13     8    40 1   
    14     9    10 1   
    15     9    41 1   
    16    10    11 1   
    17    11    12 1   
    18    11    14 1   
    19    12    13 1   
    20    12    42 1   
    21    13    16 1   
    22    13    43 1   
    23    14    15 1   
    24    14    44 1   
    25    15    16 1   
    26    15    45 1   
    27    16    17 1   
    28    18    19 1   
    29    18    46 1   
    30    19    20 1   
    31    19    47 1   
    32    19    48 1   
    33    19    49 1   
    34    20    21 1   
    35    20    49 1   
    36    21    22 1   
    37    21    50 1   
    38    22    23 1   
    39    22    27 1   
    40    22    50 1   
    41    22    51 1   
    42    23    24 1   
    43    23    52 1   
    44    23    53 1   
    45    24    25 1   
    46    24    26 1   
    47    24    54 1   
    48    25    55 1   
    49    26    27 1   
    50    26    28 1   
    51    26    56 1   
    52    28    29 1   
    53    28    32 1   
    54    29    30 1   
    55    29    33 1   
    56    30    31 1   
    57    30    36 1   
    58    31    32 1   
    59    32    57 1   
    60    33    34 1   
    61    34    35 1   
    62    34    58 1   
    63    35    36 1   
    64    36    37 1   
    65    37    59 1   
    66    37    60 1   
    67    37    61 1   
@<TRIPOS>SUBSTRUCTURE
     1 LU1         1 TEMP              0 ****  ****    0 ROOT
