@<TRIPOS>MOLECULE
molecule
   61    65     1     0     0
SMALL
bcc


@<TRIPOS>ATOM
      1 O14          0.0000     0.0000     0.0000 o          1 LU1      -0.580100
      2 C6           1.2160     0.0000     0.0000 c          1 LU1       0.672700
      3 C2           1.9540     0.0000     1.2780 ca         1 LU1      -0.154600
      4 C3           1.2550    -0.0010     2.4930 ca         1 LU1       0.157100
      5 O20         -0.1020    -0.0020     2.4960 oh         1 LU1      -0.484100
      6 C9           1.9560    -0.0010     3.6960 ca         1 LU1       0.061100
      7 O21          1.2780    -0.0030     4.8760 oh         1 LU1      -0.514100
      8 C10          3.3380    -0.0010     3.6940 ca         1 LU1      -0.122000
      9 C4           3.3500    -0.0060     1.2810 ca         1 LU1      -0.097000
     10 C7           4.0390    -0.0010     2.4880 cp         1 LU1      -0.037000
     11 C13          5.5230     0.0000     2.4920 cp         1 LU1      -0.054000
     12 C17          6.2180    -0.0000     3.7000 ca         1 LU1      -0.094500
     13 C24          7.5970    -0.0000     3.7010 ca         1 LU1      -0.162000
     14 C18          6.2260    -0.0050     1.2890 ca         1 LU1      -0.094500
     15 C25          7.6050    -0.0050     1.2980 ca         1 LU1      -0.162000
     16 C23          8.2920     0.0000     2.5030 ca         1 LU1       0.137900
     17 F26          9.6430    -0.0000     2.5070 f          1 LU1      -0.137900
     18 N16          1.8910    -0.0050    -1.1670 ns         1 LU1      -0.587900
     19 C27          1.1580    -0.0100    -2.4360 c3         1 LU1       0.147200
     20 C19          2.1380    -0.0150    -3.5800 c2         1 LU1      -0.177200
     21 C15          2.0690    -0.9480    -4.4970 c2         1 LU1      -0.170200
     22 C12          3.0490    -0.9530    -5.6430 c3         1 LU1       0.175300
     23 C11          3.8600    -2.2730    -5.6610 c3         1 LU1      -0.132400
     24 C8           5.1500    -1.8510    -6.4070 c3         1 LU1       0.100100
     25 O22          5.0690    -2.2130    -7.7880 oh         1 LU1      -0.589800
     26 C1           5.1910    -0.3180    -6.2530 c3         1 LU1       0.256800
     27 O5           4.0590     0.0610    -5.4520 os         1 LU1      -0.420600
     28 N28          6.4310     0.0810    -5.5830 na         1 LU1      -0.260000
     29 C29          7.6440     0.3010    -6.1860 ca         1 LU1       0.444800
     30 C30          8.5310     0.6630    -5.1520 ca         1 LU1      -0.151200
     31 N31          7.8210     0.6440    -3.9970 nc         1 LU1      -0.591100
     32 C32          6.5890     0.3100    -4.2500 cd         1 LU1       0.447700
     33 N33          8.0970     0.2440    -7.4310 nb         1 LU1      -0.749000
     34 C36          9.3570     0.5210    -7.6960 ca         1 LU1       0.698900
     35 N35         10.2190     0.8640    -6.7560 nb         1 LU1      -0.752000
     36 C34          9.8560     0.9470    -5.4870 ca         1 LU1       0.528600
     37 C37         10.8510     1.3390    -4.4260 c3         1 LU1      -0.141400
     38 HO20        -0.4150    -0.8480     2.7700 ho         1 LU1       0.435000
     39 HO21         1.3160     0.8570     5.2610 ho         1 LU1       0.428000
     40 H10          3.8790     0.0010     4.6330 ha         1 LU1       0.147000
     41 H4           3.8940    -0.0050     0.3450 ha         1 LU1       0.133000
     42 H17          5.6750    -0.0010     4.6380 ha         1 LU1       0.137000
     43 H24          8.1380     0.0010     4.6400 ha         1 LU1       0.150500
     44 H18          5.6900    -0.0090     0.3480 ha         1 LU1       0.137000
     45 H25          8.1520    -0.0070     0.3630 ha         1 LU1       0.150500
     46 HN16         2.8910     0.0360    -1.1660 hn         1 LU1       0.312500
     47 H27          0.5350    -0.8940    -2.4900 h1         1 LU1       0.061700
     48 H27A         0.5360     0.8750    -2.4970 h1         1 LU1       0.061700
     49 H19          2.8980     0.7530    -3.6460 ha         1 LU1       0.146000
     50 H15          1.3080    -1.7170    -4.4320 ha         1 LU1       0.144000
     51 H12          2.5400    -0.8080    -6.5880 h1         1 LU1       0.076700
     52 H11          4.0890    -2.5970    -4.6530 hc         1 LU1       0.071700
     53 H11A         3.3320    -3.0410    -6.2120 hc         1 LU1       0.071700
     54 H8           6.0190    -2.3000    -5.9420 h1         1 LU1       0.062700
     55 HO22         5.5890    -2.9840    -7.9410 ho         1 LU1       0.416000
     56 H1           5.1240     0.1500    -7.2270 h2         1 LU1       0.111700
     57 H32          5.8040     0.2260    -3.5080 h5         1 LU1       0.084800
     58 H36          9.6990     0.4660    -8.7220 h5         1 LU1       0.064100
     59 H37         11.0600     0.4840    -3.7940 hc         1 LU1       0.062033
     60 H37A        11.7680     1.6730    -4.8960 hc         1 LU1       0.062033
     61 H37B        10.4400     2.1410    -3.8250 hc         1 LU1       0.062033
@<TRIPOS>BOND
     1     1     2 2
     2     3     2 1
     3     2    18 1
     4     9     3 ar
     5     3     4 ar
     6     6     4 ar
     7     4     5 1
     8     5    38 1
     9     8     6 ar
    10     6     7 1
    11     7    39 1
    12    10     8 ar
    13     8    40 1
    14    10     9 ar
    15     9    41 1
    16    11    10 1
    17    14    11 ar
    18    11    12 ar
    19    13    12 ar
    20    12    42 1
    21    16    13 ar
    22    13    43 1
    23    15    14 ar
    24    14    44 1
    25    15    16 ar
    26    15    45 1
    27    17    16 1
    28    18    19 1
    29    18    46 1
    30    20    19 1
    31    19    47 1
    32    19    48 1
    33    21    20 2
    34    20    49 1
    35    22    21 1
    36    21    50 1
    37    23    22 1
    38    22    27 1
    39    22    51 1
    40    23    24 1
    41    23    52 1
    42    23    53 1
    43    25    24 1
    44    24    26 1
    45    24    54 1
    46    25    55 1
    47    26    27 1
    48    26    28 1
    49    26    56 1
    50    28    32 1
    51    28    29 1
    52    29    33 ar
    53    29    30 ar
    54    31    30 1
    55    30    36 ar
    56    32    31 2
    57    32    57 1
    58    33    34 ar
    59    34    35 ar
    60    34    58 1
    61    36    35 ar
    62    36    37 1
    63    37    59 1
    64    37    60 1
    65    37    61 1
@<TRIPOS>SUBSTRUCTURE
     1 LU1         1 TEMP              0 ****  ****    0 ROOT
