@<TRIPOS>MOLECULE
LU2
   31    33     1     0     0
SMALL
bcc


@<TRIPOS>ATOM
      1 C1         -0.1040   -0.3200    0.0570 ca        1 LU2     -0.231000
      2 O1          1.8450   -0.5080   -1.2480 oh        1 LU2     -0.485100
      3 C2          1.2940   -0.3060   -0.0080 ca        1 LU2      0.216100
      4 O2          2.1650    0.3090    3.5140 oh        1 LU2     -0.448100
      5 C3          2.0820   -0.0980    1.1340 ca        1 LU2     -0.349000
      6 O3         -0.0740    0.4870    4.8420 o         1 LU2     -0.525100
      7 C4          1.4510    0.1010    2.3680 ca        1 LU2      0.247100
      8 O4         -2.0860   -0.1470    1.2840 os        1 LU2     -0.222200
      9 C5          0.0400    0.0960    2.4840 ca        1 LU2     -0.277600
     10 O5         -6.6670    0.7150   -0.2950 oh        1 LU2     -0.490100
     11 C6         -0.7030   -0.1170    1.3080 ca        1 LU2      0.210100
     12 O6         -8.3360   -0.0640    1.7710 oh        1 LU2     -0.512100
     13 C7         -0.6490    0.3020    3.7620 c         1 LU2      0.597900
     14 C8         -2.1120    0.2720    3.6590 cc        1 LU2     -0.309200
     15 C9         -2.7510    0.0550    2.4900 cd        1 LU2      0.187900
     16 C10        -4.2030    0.0070    2.3090 ca        1 LU2     -0.071800
     17 C11        -4.7710    0.3730    1.0810 ca        1 LU2     -0.093000
     18 C12        -6.1600    0.3420    0.9270 ca        1 LU2      0.105100
     19 C13        -6.9780   -0.0620    2.0060 ca        1 LU2      0.061100
     20 C14        -6.4040   -0.4340    3.2240 ca        1 LU2     -0.177000
     21 C15        -5.0200   -0.4000    3.3730 ca        1 LU2     -0.098000
     22 H1         -0.7120   -0.4850   -0.8420 ha        1 LU2      0.175000
     23 HO1         2.8100   -0.4750   -1.1610 ho        1 LU2      0.427000
     24 HO2         3.1090    0.2890    3.2920 ho        1 LU2      0.421000
     25 H3          3.1780   -0.0910    1.0620 ha        1 LU2      0.143000
     26 HO5        -7.6330    0.6430   -0.2540 ho        1 LU2      0.439000
     27 HO6        -8.7780   -0.3580    2.5810 ho        1 LU2      0.433000
     28 H8         -2.6710    0.4470    4.5900 ha        1 LU2      0.168000
     29 H11        -4.1370    0.6830    0.2360 ha        1 LU2      0.170000
     30 H14        -7.0430   -0.7520    4.0610 ha        1 LU2      0.142000
     31 H15        -4.5690   -0.7010    4.3310 ha        1 LU2      0.147000
@<TRIPOS>BOND
     1    1    3 ar  
     2    1   11 ar  
     3    1   22 1   
     4    2    3 1   
     5    2   23 1   
     6    3    5 ar  
     7    4    7 1   
     8    4   24 1   
     9    5    7 ar  
    10    5   25 1   
    11    6   13 2   
    12    7    9 ar  
    13    8   11 1   
    14    8   15 1   
    15    9   11 ar  
    16    9   13 1   
    17   10   18 1   
    18   10   26 1   
    19   12   19 1   
    20   12   27 1   
    21   13   14 1   
    22   14   15 2   
    23   14   28 1   
    24   15   16 1   
    25   16   17 ar  
    26   16   21 ar  
    27   17   18 ar  
    28   17   29 1   
    29   18   19 ar  
    30   19   20 ar  
    31   20   21 ar  
    32   20   30 1   
    33   21   31 1   
@<TRIPOS>SUBSTRUCTURE
     1 LU2         1 TEMP              0 ****  ****    0 ROOT
