@<TRIPOS>MOLECULE
molecule
   31    33     1     0     0
SMALL
bcc


@<TRIPOS>ATOM
      1 C1           0.0000     0.0000     0.0000 ca         1 LU2      -0.208000
      2 O1           2.0570     0.0010    -1.1800 oh         1 LU2      -0.517100
      3 C2           1.3860     0.0000     0.0000 ca         1 LU2       0.184100
      4 O2           2.1110    -0.0010     3.5720 oh         1 LU2      -0.478100
      5 C3           2.0950     0.0000     1.1960 ca         1 LU2      -0.254000
      6 O3          -0.1690    -0.0010     4.7540 o          1 LU2      -0.522100
      7 C4           1.4220     0.0000     2.4030 ca         1 LU2       0.219100
      8 O4          -2.0430    -0.0010     1.2190 os         1 LU2      -0.213200
      9 C5           0.0210    -0.0010     2.4110 ca         1 LU2      -0.262600
     10 O5          -6.8670    -0.0050    -0.2170 oh         1 LU2      -0.506100
     11 C6          -0.6940    -0.0000     1.2010 ca         1 LU2       0.193100
     12 O6          -8.3460    -0.0030     2.1030 oh         1 LU2      -0.507100
     13 C7          -0.7370    -0.0000     3.6740 c          1 LU2       0.583900
     14 C8          -2.1490    -0.0010     3.5870 cc         1 LU2      -0.331200
     15 C9          -2.7450    -0.0000     2.3630 cd         1 LU2       0.201900
     16 C10         -4.2180    -0.0010     2.2930 ca         1 LU2      -0.065800
     17 C11         -4.8590    -0.0020     1.0510 ca         1 LU2      -0.123000
     18 C12         -6.2400    -0.0030     0.9900 ca         1 LU2       0.088100
     19 C13         -6.9900    -0.0030     2.1650 ca         1 LU2       0.112100
     20 C14         -6.3530    -0.0000     3.3980 ca         1 LU2      -0.157000
     21 C15         -4.9760    -0.0060     3.4660 ca         1 LU2      -0.092000
     22 H1          -0.5410     0.0100    -0.9380 ha         1 LU2       0.159000
     23 HO1          2.2140    -0.8880    -1.4530 ho         1 LU2       0.431000
     24 HO2          2.7040     0.7320     3.5880 ho         1 LU2       0.429000
     25 H3           3.1780    -0.0000     1.1820 ha         1 LU2       0.154000
     26 HO5         -6.7640    -0.8490    -0.6240 ho         1 LU2       0.426000
     27 HO6         -8.6710     0.8550     2.3220 ho         1 LU2       0.428000
     28 H8          -2.7520    -0.0000     4.4870 ha         1 LU2       0.170000
     29 H11         -4.2770     0.0740     0.1410 ha         1 LU2       0.159000
     30 H14         -6.9390    -0.0050     4.3090 ha         1 LU2       0.151000
     31 H15         -4.4820    -0.0040     4.4300 ha         1 LU2       0.148000
@<TRIPOS>BOND
     1     1     3 ar
     2     1    11 ar
     3     1    22 1
     4     2     3 1
     5     2    23 1
     6     3     5 ar
     7     7     4 1
     8     4    24 1
     9     5     7 ar
    10     5    25 1
    11    13     6 2
    12     9     7 ar
    13     8    11 1
    14     8    15 1
    15    11     9 ar
    16     9    13 1
    17    18    10 1
    18    10    26 1
    19    12    19 1
    20    12    27 1
    21    14    13 1
    22    15    14 2
    23    14    28 1
    24    16    15 1
    25    21    16 ar
    26    16    17 ar
    27    18    17 ar
    28    17    29 1
    29    19    18 ar
    30    20    19 ar
    31    20    21 ar
    32    20    30 1
    33    21    31 1
@<TRIPOS>SUBSTRUCTURE
     1 LU2         1 TEMP              0 ****  ****    0 ROOT
