@<TRIPOS>MOLECULE
LUF
   66    60     1     0     0
SMALL
bcc


@<TRIPOS>ATOM
      1 C4         -2.6970   -0.2670    1.0210 c1        1 LUF     -0.220500
      2 C5         -1.7780   -0.7980    0.4700 c1        1 LUF     -0.220500
      3 C6          1.2250    0.1020    2.2600 c2        1 LUF     -0.242000
      4 C10         3.8890    1.2480    3.4310 c3        1 LUF     -0.154000
      5 C13         6.0700    0.2440    4.0440 c2        1 LUF     -0.028000
      6 C15         7.2520    1.2360    7.8100 c1        1 LUF     -0.188000
      7 C17         8.8330    0.5850    9.8170 c3        1 LUF     -0.074000
      8 C20         5.9780   -0.5300   10.8120 c3        1 LUF     -0.175000
      9 C21         9.0630    1.6320   10.8130 c1        1 LUF     -0.040000
     10 C22         4.8560   -0.4420   11.8510 c3        1 LUF     -0.044000
     11 C24         4.0860    0.8140   11.6980 c2        1 LUF     -0.406000
     12 C25         2.7860    0.8940   11.5050 c1        1 LUF      0.304000
     13 O1          2.7600   -1.7110   11.6110 o         1 LUF     -0.309000
     14 C23         3.9800   -1.6700   11.7800 c2        1 LUF      0.291000
     15 O2          4.5530   -2.9010   11.9320 oh        1 LUF     -0.285000
     16 C18         7.3370   -0.6770   11.4630 c3        1 LUF     -0.164000
     17 C19         8.4610   -0.7570   10.4520 c3        1 LUF     -0.119000
     18 C16         7.9660    0.9370    8.7240 c1        1 LUF     -0.255000
     19 C12         5.0740    1.1130    4.3280 c2        1 LUF     -0.218000
     20 C14         5.2050    1.9190    5.4980 c1        1 LUF     -0.096000
     21 C3          1.4110    1.0080    3.2530 c2        1 LUF     -0.073000
     22 C1          0.5060    2.1870    3.4760 c3        1 LUF     -0.020000
     23 C9         -0.2160    2.0130    4.8100 c3        1 LUF     -0.205667
     24 C11         2.1510   -0.8950    1.9020 c1        1 LUF     -0.057000
     25 C2         -0.5450    2.3220    2.3790 c3        1 LUF     -0.205667
     26 H1         -3.5140    0.2030    1.5080 ha        1 LUF      0.221500
     27 H2         -1.1730    3.2270    2.5690 hc        1 LUF      0.077889
     28 H3          0.3590    0.1780    1.5700 ha        1 LUF      0.169000
     29 H4         -0.9630   -1.2720   -0.0180 ha        1 LUF      0.221500
     30 H11         3.8170    2.3130    3.0770 hc        1 LUF      0.096500
     31 H12         4.0010    0.6010    2.5170 hc        1 LUF      0.096500
     32 H13         6.0660   -0.3860    3.1420 ha        1 LUF      0.128500
     33 H14         6.9460    0.1420    4.7040 ha        1 LUF      0.128500
     34 H15         6.6000    1.5090    6.9930 ha        1 LUF      0.276000
     35 H16         5.9760    0.3950   10.1740 hc        1 LUF      0.104500
     36 H17         5.7950   -1.3960   10.1220 hc        1 LUF      0.104500
     37 H18         8.9720    2.6650   10.4390 ha        1 LUF      0.042000
     38 H19         7.1840    2.4890   11.9980 ha        1 LUF      0.009667
     39 H20         6.8510    2.2360   11.4610 ha        1 LUF      0.009667
     40 H22         4.6710    1.7460   11.7540 ha        1 LUF      0.185000
     41 H24         5.3100   -0.4380   12.8890 hc        1 LUF      0.118000
     42 H25         5.5100   -2.8040   12.0370 ho        1 LUF      0.228000
     43 H26         7.5260    0.1860   12.1570 hc        1 LUF      0.087500
     44 H27         7.3520   -1.6130   12.0850 hc        1 LUF      0.087500
     45 H28         9.3740   -1.1470   10.9770 hc        1 LUF      0.088500
     46 H29         9.8930    0.4570    9.3910 hc        1 LUF      0.152000
     47 H30         8.1940   -1.4820    9.6390 hc        1 LUF      0.088500
     48 H31         4.2610    0.7290    7.1940 ha        1 LUF      0.009667
     49 H32         4.4820    2.7410    5.6130 ha        1 LUF      0.051000
     50 H33         3.7250    0.6870    6.7770 ha        1 LUF      0.009667
     51 H35        -0.8050    1.0650    4.8100 hc        1 LUF      0.077889
     52 H36        -0.9150    2.8690    4.9740 hc        1 LUF      0.077889
     53 H37         0.5100    1.9830    5.6560 hc        1 LUF      0.077889
     54 H38         1.0080   -2.4450    0.7580 ha        1 LUF      0.009667
     55 H39         0.5970   -2.4750    1.3010 ha        1 LUF      0.009667
     56 H40         2.5100   -1.6090    2.6560 ha        1 LUF      0.065000
     57 H41        -1.2170    1.4290    2.3560 hc        1 LUF      0.077889
     58 H42        -0.0570    2.4350    1.3810 hc        1 LUF      0.077889
     59 C7          2.5990    0.8750    4.1460 c3        1 LUF     -0.140000
     60 C8          1.3170    3.4810    3.5050 c3        1 LUF     -0.205667
     61 O3          1.6200    1.0430   11.3330 o         1 LUF     -0.134000
     62 H6          2.4830    1.5140    5.0620 hc        1 LUF      0.093500
     63 H7          2.6730   -0.1920    4.4990 hc        1 LUF      0.093500
     64 H8          2.0570    3.4720    4.3400 hc        1 LUF      0.077889
     65 H9          0.6330    4.3520    3.6500 hc        1 LUF      0.077889
     66 H10         1.8650    3.6140    2.5420 hc        1 LUF      0.077889
@<TRIPOS>BOND
     1    1    2 1   
     2    1   26 1   
     3    2   29 1   
     4    3   21 1   
     5    3   24 1   
     6    3   28 1   
     7    4   19 1   
     8    4   30 1   
     9    4   31 1   
    10    4   59 1   
    11    5   19 1   
    12    5   32 1   
    13    5   33 1   
    14    6   18 1   
    15    6   34 1   
    16    7    9 1   
    17    7   17 1   
    18    7   18 1   
    19    7   46 1   
    20    8   10 1   
    21    8   16 1   
    22    8   35 1   
    23    8   36 1   
    24    9   37 1   
    25   10   11 1   
    26   10   14 1   
    27   10   41 1   
    28   11   12 1   
    29   11   40 1   
    30   12   61 1   
    31   13   14 1   
    32   14   15 1   
    33   15   42 1   
    34   16   17 1   
    35   16   43 1   
    36   16   44 1   
    37   17   45 1   
    38   17   47 1   
    39   19   20 1   
    40   20   49 1   
    41   21   22 1   
    42   21   59 1   
    43   22   23 1   
    44   22   25 1   
    45   22   60 1   
    46   23   51 1   
    47   23   52 1   
    48   23   53 1   
    49   24   56 1   
    50   25   27 1   
    51   25   57 1   
    52   25   58 1   
    53   38   39 1   
    54   48   50 1   
    55   54   55 1   
    56   59   62 1   
    57   59   63 1   
    58   60   64 1   
    59   60   65 1   
    60   60   66 1   
@<TRIPOS>SUBSTRUCTURE
     1 LUF         1 TEMP              0 ****  ****    0 ROOT
