@<TRIPOS>MOLECULE
molecule
   66    67     1     0     0
SMALL
bcc


@<TRIPOS>ATOM
      1 C4           0.0000     0.0000     0.0000 c3         1 LUF      -0.081400
      2 C5           1.5310     0.0000     0.0000 c3         1 LUF      -0.034200
      3 C6           2.0470     0.0000     1.4090 c2         1 LUF      -0.123400
      4 C10          2.5010     1.6760     4.1550 c3         1 LUF      -0.046200
      5 C13          4.4620     1.4890     5.5980 c2         1 LUF      -0.187200
      6 C15          5.1400     1.5800     6.9410 c3         1 LUF      -0.044200
      7 C17          6.5400     0.3560     8.5810 c2         1 LUF       0.043600
      8 C20          5.8580     0.6620    12.0120 c3         1 LUF      -0.046200
      9 C21          7.9130     0.9660     8.6920 c3         1 LUF      -0.130900
     10 C22          6.5840     0.6370    13.3330 c2         1 LUF      -0.094400
     11 C24          7.4170     1.5660    13.7960 ce         1 LUF      -0.244200
     12 C25          7.9100     1.1640    15.1160 c          1 LUF       0.721800
     13 O1           7.3750    -0.0200    15.4660 os         1 LUF      -0.412900
     14 C23          6.4990    -0.4440    14.3850 c3         1 LUF       0.357100
     15 O2           6.9520    -1.6860    13.8410 oh         1 LUF      -0.581800
     16 C18          6.6610    -0.1210    10.9720 c3         1 LUF      -0.089200
     17 C19          5.9350    -0.0950     9.6520 c2         1 LUF      -0.508200
     18 C16          5.8610     0.2650     7.2380 c3         1 LUF      -0.042200
     19 C12          3.1640     1.6390     5.5090 c2         1 LUF      -0.120400
     20 C14          2.3320     1.7740     6.7580 c3         1 LUF      -0.054900
     21 C3           1.3340     0.3150     2.4420 c2         1 LUF      -0.117400
     22 C1          -0.1110     0.7150     2.3780 c3         1 LUF      -0.018800
     23 C9          -0.9830    -0.4600     2.8250 c3         1 LUF      -0.081100
     24 C11          3.4850    -0.3920     1.6350 c3         1 LUF      -0.054900
     25 C2          -0.4870     1.1040     0.9460 c3         1 LUF      -0.069400
     26 H1          -0.3630     0.1940    -1.0020 hc         1 LUF       0.043700
     27 H2          -0.3630    -0.9600     0.3450 hc         1 LUF       0.043700
     28 H3           1.8880    -0.8850    -0.5120 hc         1 LUF       0.047700
     29 H4           1.8880     0.8850    -0.5120 hc         1 LUF       0.047700
     30 H11          3.2160     2.0050     3.4110 hc         1 LUF       0.053200
     31 H12          1.6650     2.3660     4.1820 hc         1 LUF       0.053200
     32 H13          5.0580     1.3920     4.6990 ha         1 LUF       0.124000
     33 H14          5.8590     2.3900     6.9280 hc         1 LUF       0.049700
     34 H15          4.3990     1.7670     7.7080 hc         1 LUF       0.049700
     35 H16          4.8800     0.2100    12.1290 hc         1 LUF       0.066200
     36 H17          5.7440     1.6880    11.6820 hc         1 LUF       0.066200
     37 H18          7.8670     1.8460     9.3210 hc         1 LUF       0.052033
     38 H19          8.5940     0.2450     9.1270 hc         1 LUF       0.052033
     39 H20          8.2640     1.2450     7.7060 hc         1 LUF       0.052033
     40 H22          7.2360     2.6120    13.5810 ha         1 LUF       0.172000
     41 H24          5.4810    -0.5350    14.7440 h2         1 LUF       0.084700
     42 H25          6.8510    -2.3660    14.4860 ho         1 LUF       0.423000
     43 H26          6.7740    -1.1470    11.3020 hc         1 LUF       0.071700
     44 H27          7.6390     0.3310    10.8560 hc         1 LUF       0.071700
     45 H28          6.0020     0.7820    10.2840 ha         1 LUF       0.323000
     46 H29          5.1420    -0.5460     7.2510 hc         1 LUF       0.064700
     47 H30          6.6020     0.0780     6.4710 hc         1 LUF       0.064700
     48 H31          2.6930     2.6110     7.3440 hc         1 LUF       0.043033
     49 H32          1.2970     1.9420     6.4870 hc         1 LUF       0.043033
     50 H33          2.4090     0.8650     7.3430 hc         1 LUF       0.043033
     51 H35         -1.9640    -0.3740     2.3740 hc         1 LUF       0.036200
     52 H36         -1.0790    -0.4480     3.9040 hc         1 LUF       0.036200
     53 H37         -0.5230    -1.3900     2.5140 hc         1 LUF       0.036200
     54 H38          4.0160     0.4330     2.0950 hc         1 LUF       0.040033
     55 H39          3.9460    -0.6330     0.6850 hc         1 LUF       0.040033
     56 H40          3.5260    -1.2560     2.2860 hc         1 LUF       0.040033
     57 H41         -0.0090     2.0420     0.6870 hc         1 LUF       0.043700
     58 H42         -1.5620     1.2030     0.8670 hc         1 LUF       0.043700
     59 C7           1.9960     0.2770     3.7960 c3         1 LUF      -0.042200
     60 C8          -0.3490     1.9070     3.3070 c3         1 LUF      -0.081100
     61 O3           8.6870     1.8070    15.7950 o          1 LUF      -0.552500
     62 H6           2.8320    -0.4120     3.7710 hc         1 LUF       0.051200
     63 H7           1.2800    -0.0510     4.5400 hc         1 LUF       0.051200
     64 H8          -1.3860     2.2140     3.2420 hc         1 LUF       0.036200
     65 H9           0.2910     2.7290     3.0110 hc         1 LUF       0.036200
     66 H10         -0.1210     1.6210     4.3270 hc         1 LUF       0.036200
@<TRIPOS>BOND
     1    61    12 2
     2    12    13 1
     3    12    11 1
     4    13    14 1
     5    11    10 2
     6    14    10 1
     7    14    15 1
     8    10     8 1
     9     8    16 1
    10    16    17 1
    11     9     7 1
    12    17     7 2
    13     7    18 1
    14    18     6 1
    15     6     5 1
    16     5    19 2
    17    20    19 1
    18    19     4 1
    19     4    59 1
    20    60    22 1
    21    59    21 1
    22    22    23 1
    23    22    21 1
    24    22    25 1
    25    21     3 2
    26    25     1 1
    27     1     2 1
    28     3     2 1
    29     3    24 1
    30     1    26 1
    31     1    27 1
    32     2    28 1
    33     2    29 1
    34    59    62 1
    35    59    63 1
    36    60    64 1
    37    60    65 1
    38    60    66 1
    39     4    30 1
    40     4    31 1
    41     5    32 1
    42     6    33 1
    43     6    34 1
    44     8    35 1
    45     8    36 1
    46     9    37 1
    47     9    38 1
    48     9    39 1
    49    11    40 1
    50    14    41 1
    51    15    42 1
    52    16    43 1
    53    16    44 1
    54    17    45 1
    55    18    46 1
    56    18    47 1
    57    20    48 1
    58    20    49 1
    59    20    50 1
    60    23    51 1
    61    23    52 1
    62    23    53 1
    63    24    54 1
    64    24    55 1
    65    24    56 1
    66    25    57 1
    67    25    58 1
@<TRIPOS>SUBSTRUCTURE
     1 LUF         1 TEMP              0 ****  ****    0 ROOT
