@<TRIPOS>MOLECULE
LUG
   40    42     1     0     0
SMALL
bcc


@<TRIPOS>ATOM
      1 F2          0.6050   -0.1150    0.4020 f         1 LUG     -0.098900
      2 C11         1.9440   -0.0120    0.2830 ca        1 LUG      0.160900
      3 C12         2.7730   -0.4370    1.3540 ca        1 LUG      0.046900
      4 F1          2.1840   -0.9120    2.4750 f         1 LUG     -0.101900
      5 C10         2.5120    0.5290   -0.8830 ca        1 LUG     -0.167000
      6 C9          3.8880    0.6420   -0.9790 ca        1 LUG     -0.058000
      7 C8          4.7280    0.2130    0.0590 ca        1 LUG     -0.190500
      8 C13         6.1580    0.3610   -0.1170 cc        1 LUG      0.573900
      9 N2          7.1890    0.5760    0.7260 nd        1 LUG     -0.326000
     10 N3          8.3180    0.6230    0.0440 nd        1 LUG     -0.460000
     11 C14         8.0430    0.4450   -1.2800 cc        1 LUG      0.624300
     12 N4          8.8860    0.3180   -2.3810 nh        1 LUG     -0.816900
     13 C15        10.0690    1.1470   -2.3840 c3        1 LUG      0.171800
     14 C16        11.3050    0.4300   -1.7970 c3        1 LUG      0.092800
     15 N5         11.1360    0.0030   -0.3830 n4        1 LUG     -0.829600
     16 O1          6.6540    0.2810   -1.4450 os        1 LUG     -0.383800
     17 C7          4.1930   -0.3560    1.2480 ca        1 LUG      0.196600
     18 N1          5.0620   -0.8040    2.2480 nh        1 LUG     -0.643000
     19 C3          4.8390   -1.9540    3.0190 ca        1 LUG      0.134600
     20 C4          4.1450   -3.0730    2.5170 ca        1 LUG     -0.151000
     21 C5          4.0270   -4.2370    3.2680 ca        1 LUG     -0.072000
     22 C6          4.5970   -4.3290    4.5380 ca        1 LUG      0.014900
     23 I1          4.4220   -6.0280    5.6120 i         1 LUG     -0.107900
     24 C1          5.2860   -3.2410    5.0660 ca        1 LUG     -0.096000
     25 C2          5.4120   -2.0570    4.3240 ca        1 LUG      0.067900
     26 F3          6.0920   -1.0100    4.8570 f         1 LUG     -0.140900
     27 H10         1.8550    0.8620   -1.7010 ha        1 LUG      0.175000
     28 H9          4.3360    1.0740   -1.8890 ha        1 LUG      0.155000
     29 HN4         8.3910    0.2760   -3.2530 hn        1 LUG      0.457800
     30 H15        10.3390    1.3950   -3.4540 h1        1 LUG      0.097200
     31 H15A        9.9130    2.1190   -1.8310 h1        1 LUG      0.097200
     32 H16        11.5480   -0.4880   -2.4070 hx        1 LUG      0.115700
     33 H16A       12.1750    1.1470   -1.8480 hx        1 LUG      0.115700
     34 HN5        10.8120    0.7890    0.1960 hn        1 LUG      0.471133
     35 HN5A       10.4390   -0.7500   -0.3190 hn        1 LUG      0.471133
     36 HN1         5.6250   -0.0980    2.6800 hn        1 LUG      0.461800
     37 H4          3.6740   -3.0220    1.5230 ha        1 LUG      0.146000
     38 H5          3.4720   -5.0900    2.8430 ha        1 LUG      0.157000
     39 H1          5.7380   -3.2820    6.0710 ha        1 LUG      0.167000
     40 H53        12.0270   -0.3400   -0.0120 hn        1 LUG      0.471133
@<TRIPOS>BOND
     1    1    2 1   
     2    2    3 ar  
     3    2    5 ar  
     4    3    4 1   
     5    3   17 ar  
     6    5    6 ar  
     7    5   27 1   
     8    6    7 ar  
     9    6   28 1   
    10    7    8 1   
    11    7   17 ar  
    12    8    9 2   
    13    8   16 1   
    14    9   10 1   
    15   10   11 2   
    16   11   12 1   
    17   11   16 1   
    18   12   13 1   
    19   12   29 1   
    20   13   14 1   
    21   13   30 1   
    22   13   31 1   
    23   14   15 1   
    24   14   32 1   
    25   14   33 1   
    26   15   34 1   
    27   15   35 1   
    28   15   40 1   
    29   17   18 1   
    30   18   19 1   
    31   18   36 1   
    32   19   20 ar  
    33   19   25 ar  
    34   20   21 ar  
    35   20   37 1   
    36   21   22 ar  
    37   21   38 1   
    38   22   23 1   
    39   22   24 ar  
    40   24   25 ar  
    41   24   39 1   
    42   25   26 1   
@<TRIPOS>SUBSTRUCTURE
     1 LUG         1 TEMP              0 ****  ****    0 ROOT
