@<TRIPOS>MOLECULE
molecule
   55    57     1     0     0
SMALL
bcc


@<TRIPOS>ATOM
      1 C4           0.0000     0.0000     0.0000 ca         1 LUI      -0.125000
      2 C5           1.3840     0.0000     0.0000 ca         1 LUI       0.146100
      3 C6           2.0930     0.0000     1.2010 ca         1 LUI      -0.221000
      4 C7          -0.7060    -0.0010     3.6850 c          1 LUI       0.714100
      5 C10         -2.1520    -0.0010     1.2780 cc         1 LUI      -0.005400
      6 C13         -4.5150    -1.0870    -1.4340 ca         1 LUI      -0.116500
      7 C15         -3.6660     1.0880    -1.9850 ca         1 LUI      -0.116500
      8 C20         -2.9990     1.4400     5.3920 c3         1 LUI      -0.105700
      9 C21         -3.8700     1.4440     6.6490 c3         1 LUI      -0.094100
     10 C22         -1.6450     2.0790     5.7060 c3         1 LUI      -0.094100
     11 C26          4.0540    -0.0010    -2.5070 c          1 LUI       0.468100
     12 O28          3.3100    -0.0020    -3.4660 o          1 LUI      -0.346100
     13 N27          5.3890    -0.0010    -2.6900 nz         1 LUI      -0.682400
     14 C25          3.4850    -0.0010    -1.1120 c3         1 LUI       0.074400
     15 O24          2.0580    -0.0010    -1.1800 os         1 LUI      -0.292900
     16 C1           1.4400    -0.0000     2.3990 ca         1 LUI      -0.007000
     17 C3          -0.6820    -0.0010     1.2130 ca         1 LUI       0.020200
     18 C9          -2.7590    -0.0020     2.4900 cd         1 LUI      -0.043600
     19 N18         -4.7330     1.2700     3.1170 nz         1 LUI      -0.820600
     20 N8          -2.0530    -0.0020     3.6560 n          1 LUI      -0.353000
     21 C19         -2.7860    -0.0030     4.9250 c3         1 LUI       0.072000
     22 O23         -0.1160    -0.0020     4.7510 o          1 LUI      -0.592500
     23 C2           0.0440    -0.0000     2.4260 ca         1 LUI      -0.159600
     24 C11         -2.9590     0.0000     0.0350 ca         1 LUI      -0.112800
     25 C16         -2.9130     1.0930    -0.8290 ca         1 LUI      -0.127000
     26 C14         -4.4660     0.0010    -2.2880 ca         1 LUI      -0.096000
     27 C12         -3.7670    -1.0930    -0.2760 ca         1 LUI      -0.127000
     28 H4          -0.5470    -0.0000    -0.9350 ha         1 LUI       0.175000
     29 H6           3.1770     0.0000     1.1820 ha         1 LUI       0.132000
     30 H13         -5.1440    -1.9360    -1.6760 ha         1 LUI       0.155500
     31 H15         -3.6300     1.9370    -2.6570 ha         1 LUI       0.155500
     32 H17         -4.6010    -0.8210     3.1750 hx         1 LUI       0.129700
     33 H17A        -4.6660    -0.1210     1.5510 hx         1 LUI       0.129700
     34 H20         -3.4880     2.0090     4.6110 hc         1 LUI      -0.018300
     35 H21         -4.7540     0.8420     6.4780 hc         1 LUI       0.057200
     36 H21A        -3.3090     1.0340     7.4790 hc         1 LUI       0.057200
     37 H21B        -4.1660     2.4610     6.8800 hc         1 LUI       0.057200
     38 H22         -1.0440     1.3860     6.2830 hc         1 LUI       0.057200
     39 H22A        -1.1340     2.3160     4.7810 hc         1 LUI       0.057200
     40 H22B        -1.7980     2.9870     6.2770 hc         1 LUI       0.057200
     41 HN27         5.7920    -0.7810    -2.2100 hn         1 LUI       0.485800
     42 HN2A         5.7750     0.8490    -2.3290 hn         1 LUI       0.485800
     43 H25          3.8210    -0.8850    -0.5850 h1         1 LUI       0.087700
     44 H25A         3.8210     0.8830    -0.5850 h1         1 LUI       0.087700
     45 H1           2.0020    -0.0000     3.3250 ha         1 LUI       0.179000
     46 HN18        -5.5350     1.5860     2.6100 hn         1 LUI       0.462800
     47 HN1A        -4.0100     1.9600     3.0610 hn         1 LUI       0.462800
     48 H19         -2.2160    -0.5430     5.6710 h1         1 LUI       0.079700
     49 H19A        -3.7470    -0.4830     4.7860 h1         1 LUI       0.079700
     50 H16         -2.2870     1.9450    -0.5940 ha         1 LUI       0.139500
     51 H14         -5.0560     0.0010    -3.1960 ha         1 LUI       0.159000
     52 H12         -3.8060    -1.9460     0.3910 ha         1 LUI       0.139500
     53 C17         -4.2650    -0.0020     2.5500 c3         1 LUI       0.143000
     54 H273         5.5920    -0.0650    -3.6680 hn         1 LUI       0.485800
     55 H183        -4.9770     1.1390     4.0790 hn         1 LUI       0.462800
@<TRIPOS>BOND
     1     1     2 ar
     2     1    17 ar
     3     2     3 ar
     4     2    15 1
     5     3    16 ar
     6     4    20 1
     7     4    22 2
     8     4    23 1
     9     5    17 1
    10     5    18 2
    11     5    24 1
    12     6    26 ar
    13     6    27 ar
    14     7    25 ar
    15     7    26 ar
    16    53    18 1
    17    53    19 1
    18     8     9 1
    19     8    10 1
    20     8    21 1
    21    11    12 2
    22    11    13 1
    23    11    14 1
    24    14    15 1
    25    16    23 ar
    26    17    23 ar
    27    18    20 1
    28    20    21 1
    29    24    25 ar
    30    24    27 ar
    31     1    28 1
    32     3    29 1
    33     6    30 1
    34     7    31 1
    35    53    32 1
    36    53    33 1
    37     8    34 1
    38     9    35 1
    39     9    36 1
    40     9    37 1
    41    10    38 1
    42    10    39 1
    43    10    40 1
    44    13    41 1
    45    13    42 1
    46    14    43 1
    47    14    44 1
    48    16    45 1
    49    19    46 1
    50    19    47 1
    51    21    48 1
    52    21    49 1
    53    25    50 1
    54    26    51 1
    55    27    52 1
    56    54    13 1
    57    55    19 1
@<TRIPOS>SUBSTRUCTURE
     1 LUI         1 TEMP              0 ****  ****    0 ROOT
