@<TRIPOS>MOLECULE
LUM
   28    30     1     0     0
SMALL
bcc


@<TRIPOS>ATOM
      1 N1          0.0070   -0.0000   -0.0480 n         1 LUM     -0.538400
      2 C2          1.4110   -0.0010   -0.0850 c         1 LUM      0.819500
      3 C10        -0.7030   -0.0020    1.1540 ca        1 LUM      0.460900
      4 O2          2.0010    0.0010   -1.1850 o         1 LUM     -0.623500
      5 N3          2.1280   -0.0040    1.1200 n         1 LUM     -0.590500
      6 C4          1.5360   -0.0060    2.3880 c         1 LUM      0.620000
      7 O4          2.2670   -0.0090    3.3870 o         1 LUM     -0.557500
      8 C4A         0.0390   -0.0050    2.4230 ca        1 LUM      0.229500
      9 N5         -0.5850   -0.0070    3.5950 nb        1 LUM     -0.532000
     10 C5A        -1.9610   -0.0060    3.5860 ca        1 LUM      0.246300
     11 C6         -2.6840   -0.0080    4.8190 ca        1 LUM     -0.137300
     12 C9A        -2.6940   -0.0030    2.3450 ca        1 LUM      0.354300
     13 C7         -4.0580   -0.0070    4.8290 ca        1 LUM     -0.080300
     14 C7M        -4.8000   -0.0090    6.1120 c3        1 LUM     -0.056800
     15 C8         -4.7870   -0.0040    3.5990 ca        1 LUM     -0.035300
     16 C8M        -6.2690   -0.0030    3.6350 c3        1 LUM     -0.062800
     17 C9         -4.1230   -0.0020    2.3940 ca        1 LUM     -0.187300
     18 N10        -2.0500   -0.0010    1.1310 nb        1 LUM     -0.687000
     19 HN1        -0.4740    0.0020   -0.9230 hn        1 LUM      0.367500
     20 HN3         3.1250   -0.0050    1.0520 hn        1 LUM      0.361500
     21 HC6        -2.1150   -0.0100    5.7650 ha        1 LUM      0.160000
     22 H7M1       -4.1030   -0.0080    6.9860 hc        1 LUM      0.050367
     23 H7M2       -5.4550    0.8950    6.1810 hc        1 LUM      0.050367
     24 H7M3       -5.4510   -0.9170    6.1800 hc        1 LUM      0.050367
     25 H8M1       -6.7030   -0.0040    2.6050 hc        1 LUM      0.053367
     26 H8M2       -6.6390    0.9050    4.1760 hc        1 LUM      0.053367
     27 H8M3       -6.6410   -0.9080    4.1780 hc        1 LUM      0.053367
     28 HC9        -4.6840    0.0000    1.4450 ha        1 LUM      0.157000
@<TRIPOS>BOND
     1    1    2 1   
     2    1    3 1   
     3    1   19 1   
     4    2    4 2   
     5    2    5 1   
     6    3    8 ar  
     7    3   18 ar  
     8    5    6 1   
     9    5   20 1   
    10    6    7 2   
    11    6    8 1   
    12    8    9 ar  
    13    9   10 ar  
    14   10   11 ar  
    15   10   12 ar  
    16   11   13 ar  
    17   11   21 1   
    18   12   17 ar  
    19   12   18 ar  
    20   13   14 1   
    21   13   15 ar  
    22   14   22 1   
    23   14   23 1   
    24   14   24 1   
    25   15   16 1   
    26   15   17 ar  
    27   16   25 1   
    28   16   26 1   
    29   16   27 1   
    30   17   28 1   
@<TRIPOS>SUBSTRUCTURE
     1 LUM         1 TEMP              0 ****  ****    0 ROOT
