@<TRIPOS>MOLECULE
molecule
   58    63     1     0     0
SMALL
bcc


@<TRIPOS>ATOM
      1 C1           0.0000     0.0000     0.0000 c3         1 LUN      -0.023700
      2 C2          -0.5490     1.3860    -0.1990 ca         1 LUN      -0.125300
      3 C3          -0.5550    -0.8300    -1.1570 c3         1 LUN       0.093000
      4 C4           1.5350     0.0000     0.0000 c3         1 LUN       0.153800
      5 C5          -0.4230    -0.5810     1.3550 c3         1 LUN      -0.073400
      6 C6          -1.3400     1.3750    -1.3410 ca         1 LUN       0.059600
      7 C7          -0.3880     2.5490     0.5260 ca         1 LUN      -0.080000
      8 N8          -1.3750     0.1080    -1.9320 n          1 LUN      -0.374000
      9 N9           1.9040     0.0000     1.4410 n3         1 LUN      -0.697600
     10 C10          0.9070    -0.8990     2.0780 c3         1 LUN       0.139800
     11 C11         -1.9700     2.5550    -1.7400 ca         1 LUN      -0.137000
     12 C12         -1.0150     3.7140     0.1240 ca         1 LUN      -0.154000
     13 C13         -2.0590    -0.2050    -3.0500 c          1 LUN       0.710300
     14 C14          3.2690    -0.5080     1.6340 c3         1 LUN       0.161500
     15 C15         -1.8060     3.7130    -1.0110 ca         1 LUN      -0.104000
     16 C16         -1.9320    -1.5460    -3.6390 cc         1 LUN      -0.130300
     17 O17         -2.7830     0.6220    -3.5720 o          1 LUN      -0.572100
     18 C18          3.6140    -0.4930     3.1260 c3         1 LUN      -0.075400
     19 C19          4.2580     0.3830     0.8780 c3         1 LUN       0.161800
     20 C20         -2.4810    -1.9450    -4.8160 cd         1 LUN      -0.102200
     21 N21         -1.2310    -2.5990    -3.0860 na         1 LUN      -0.184400
     22 C22          5.0580    -0.9670     3.3130 c3         1 LUN      -0.079400
     23 N23          5.6240    -0.1120     1.0890 n7         1 LUN      -0.821200
     24 C24         -2.1240    -3.3000    -5.0220 ca         1 LUN      -0.097800
     25 C25         -1.3380    -3.6890    -3.9210 ca         1 LUN      -0.044200
     26 C26          5.9950    -0.0630     2.5090 c3         1 LUN       0.156800
     27 C27         -2.3960    -4.2220    -6.0410 ca         1 LUN      -0.112000
     28 C28         -0.8410    -4.9880    -3.8590 ca         1 LUN      -0.123000
     29 C29         -1.9010    -5.4920    -5.9580 ca         1 LUN       0.103900
     30 C30         -1.1240    -5.8780    -4.8710 ca         1 LUN      -0.133000
     31 F31         -2.1640    -6.3800    -6.9420 f          1 LUN      -0.142900
     32 H3          -1.1660    -1.6400    -0.7780 h1         1 LUN       0.053700
     33 H3A          0.2550    -1.2130    -1.7660 h1         1 LUN       0.053700
     34 H4           1.9120     0.8920    -0.4860 h1         1 LUN       0.050700
     35 H4A          1.9120    -0.8920    -0.4860 h1         1 LUN       0.050700
     36 H5          -0.9900     0.1510     1.9170 hc         1 LUN       0.058700
     37 H5A         -0.9990    -1.4870     1.2130 hc         1 LUN       0.058700
     38 H7           0.2320     2.5490     1.4150 ha         1 LUN       0.144000
     39 H10          0.8230    -0.6780     3.1360 h1         1 LUN       0.045200
     40 H10A         1.1810    -1.9360     1.9230 h1         1 LUN       0.045200
     41 H11         -2.5910     2.5610    -2.6280 ha         1 LUN       0.167000
     42 H12         -0.8870     4.6250     0.6960 ha         1 LUN       0.133000
     43 H14          3.3390    -1.5220     1.2590 h1         1 LUN       0.039700
     44 H15         -2.2970     4.6250    -1.3270 ha         1 LUN       0.136000
     45 H18          3.5120     0.5140     3.5100 hc         1 LUN       0.048200
     46 H18A         2.9450    -1.1590     3.6580 hc         1 LUN       0.048200
     47 H19          4.1830     1.3980     1.2480 h1         1 LUN       0.039700
     48 H19A         4.0270     0.3600    -0.1800 h1         1 LUN       0.039700
     49 H20         -3.0120    -1.3130    -5.5180 ha         1 LUN       0.175000
     50 H22          5.3210    -0.9150     4.3630 hc         1 LUN       0.049700
     51 H22A         5.1520    -1.9870     2.9610 hc         1 LUN       0.049700
     52 HN23         6.2650     0.4430     0.5570 hn         1 LUN       0.357800
     53 H26          5.9080     0.9560     2.8690 h1         1 LUN       0.033200
     54 H26A         7.0150    -0.4070     2.6270 h1         1 LUN       0.033200
     55 H27         -3.0010    -3.9300    -6.8910 ha         1 LUN       0.150000
     56 H28         -0.2340    -5.2990    -3.0170 ha         1 LUN       0.133000
     57 H30         -0.7380    -6.8890    -4.8190 ha         1 LUN       0.147000
     58 HN21        -0.7290    -2.5750    -2.2210 hn         1 LUN       0.307700
@<TRIPOS>BOND
     1     4     1 1
     2     1     3 1
     3     1     2 1
     4     1     5 1
     5     7     2 ar
     6     2     6 ar
     7     3     8 1
     8     3    32 1
     9     3    33 1
    10     4     9 1
    11     4    34 1
    12     4    35 1
    13    10     5 1
    14     5    36 1
    15     5    37 1
    16     6     8 1
    17     6    11 ar
    18     7    12 ar
    19     7    38 1
    20    13     8 1
    21    14     9 1
    22     9    10 1
    23    10    39 1
    24    10    40 1
    25    15    11 ar
    26    11    41 1
    27    12    15 ar
    28    12    42 1
    29    16    13 1
    30    13    17 2
    31    19    14 1
    32    14    18 1
    33    14    43 1
    34    15    44 1
    35    21    16 1
    36    20    16 2
    37    22    18 1
    38    18    45 1
    39    18    46 1
    40    23    19 1
    41    19    47 1
    42    19    48 1
    43    24    20 1
    44    20    49 1
    45    25    21 1
    46    26    22 1
    47    22    50 1
    48    22    51 1
    49    23    26 1
    50    23    52 1
    51    25    24 ar
    52    27    24 ar
    53    28    25 ar
    54    26    53 1
    55    26    54 1
    56    29    27 ar
    57    27    55 1
    58    30    28 ar
    59    28    56 1
    60    30    29 ar
    61    31    29 1
    62    30    57 1
    63    21    58 1
@<TRIPOS>SUBSTRUCTURE
     1 LUN         1 TEMP              0 ****  ****    0 ROOT
