@<TRIPOS>MOLECULE
LUR
   32    33     1     0     0
SMALL
bcc


@<TRIPOS>ATOM
      1 OAB          0.0000     0.0000     0.0000 o          1 LUR      -0.894300
      2 CAN          1.2080     0.0000     0.0000 c          1 LUR       0.982600
      3 OAC          1.8800     0.0000     1.1620 o          1 LUR      -0.894300
      4 CAL          1.9620    -0.0050    -1.3050 c3         1 LUR      -0.111100
      5 CAR          0.9820    -0.0110    -2.4500 ca         1 LUR       0.024700
      6 CAK          0.6080    -1.2040    -3.0340 ca         1 LUR      -0.095000
      7 CAO         -0.2910    -1.2100    -4.0860 ca         1 LUR      -0.090300
      8 CAA         -0.6960    -2.5150    -4.7200 c3         1 LUR       0.067200
      9 CAI         -0.8190    -0.0220    -4.5540 ca         1 LUR      -0.133000
     10 CAJ         -0.4500     1.1760    -3.9750 ca         1 LUR      -0.096000
     11 CAS          0.4490     1.1860    -2.9160 ca         1 LUR      -0.025400
     12 NAM          0.8210     2.3950    -2.3240 nu         1 LUR      -0.205000
     13 CAT          2.0880     2.9350    -2.5720 ca         1 LUR       0.052600
     14 CAQ          2.6100     3.9040    -1.7250 ca         1 LUR      -0.099600
     15 ClE          1.6910     4.4470    -0.3560 cl         1 LUR      -0.008400
     16 CAH          3.8620     4.4360    -1.9730 ca         1 LUR      -0.065000
     17 CAF          4.5950     4.0040    -3.0630 ca         1 LUR      -0.157000
     18 CAG          4.0790     3.0390    -3.9090 ca         1 LUR      -0.094000
     19 CAP          2.8300     2.4990    -3.6650 ca         1 LUR       0.034900
     20 FAD          2.3290     1.5540    -4.4890 f          1 LUR      -0.126900
     21 H2           2.5850    -0.8890    -1.3580 hc         1 LUR       0.021700
     22 H3           2.5840     0.8800    -1.3660 hc         1 LUR       0.021700
     23 H4           1.0220    -2.1370    -2.6710 ha         1 LUR       0.108000
     24 H5          -1.0330    -3.2010    -3.9520 hc         1 LUR      -0.002300
     25 H6          -1.5000    -2.3400    -5.4250 hc         1 LUR      -0.002300
     26 H7           0.1520    -2.9430    -5.2390 hc         1 LUR      -0.002300
     27 H8          -1.5210    -0.0300    -5.3790 ha         1 LUR       0.090000
     28 H9          -0.8660     2.1070    -4.3420 ha         1 LUR       0.091000
     29 H10          0.1650     2.8970    -1.7590 hn         1 LUR       0.300800
     30 H14          4.2700     5.1920    -1.3120 ha         1 LUR       0.103000
     31 H15          5.5740     4.4240    -3.2560 ha         1 LUR       0.098000
     32 H16          4.6570     2.7020    -4.7610 ha         1 LUR       0.104000
@<TRIPOS>BOND
     1     1     2 1   
     2     2     3 1   
     3     2     4 1   
     4     4     5 1   
     5     4    21 1   
     6     4    22 1   
     7     5     6 ar  
     8     5    11 ar  
     9     6     7 ar  
    10     6    23 1   
    11     7     8 1   
    12     7     9 ar  
    13     8    24 1   
    14     8    25 1   
    15     8    26 1   
    16     9    10 ar  
    17     9    27 1   
    18    10    11 ar  
    19    10    28 1   
    20    11    12 1   
    21    12    13 1   
    22    12    29 1   
    23    13    14 ar  
    24    13    19 ar  
    25    14    15 1   
    26    14    16 ar  
    27    16    17 ar  
    28    16    30 1   
    29    17    18 ar  
    30    17    31 1   
    31    18    19 ar  
    32    18    32 1   
    33    19    20 1   
@<TRIPOS>SUBSTRUCTURE
     1 LUR         1 TEMP              0 ****  ****    0 ROOT
