@<TRIPOS>MOLECULE
molecule
   98    99     1     0     0
SMALL
bcc


@<TRIPOS>ATOM
      1 C1           0.0000     0.0000     0.0000 c3         1 LUT       0.000200
      2 C2           1.5450     0.0000     0.0000 c3         1 LUT      -0.086400
      3 C3           2.2830     0.0000     1.3390 c3         1 LUT       0.159100
      4 C4           1.5200     0.6860     2.4710 c3         1 LUT      -0.061200
      5 C5           0.0290     0.6070     2.4860 c2         1 LUT      -0.107400
      6 C6          -0.7060     0.2950     1.3610 ce         1 LUT      -0.074200
      7 C7          -2.1800     0.2220     1.4080 ce         1 LUT      -0.111000
      8 C8          -3.0570     1.2450     1.4070 cf         1 LUT      -0.131000
      9 C9          -4.5060     1.1430     1.5940 cf         1 LUT      -0.071200
     10 C10         -5.2470     2.2650     1.4530 ce         1 LUT      -0.128000
     11 C11         -6.6790     2.3720     1.5810 ce         1 LUT      -0.122000
     12 C12         -7.3060     3.5010     1.2180 cf         1 LUT      -0.126000
     13 C13         -8.7390     3.8290     1.2150 cf         1 LUT      -0.070200
     14 C14         -9.0930     5.0180     0.6800 ce         1 LUT      -0.129000
     15 C15        -10.4070     5.5570     0.4730 ce         1 LUT      -0.123000
     16 C16         -0.4610    -1.3570    -0.5650 c3         1 LUT      -0.083100
     17 C17         -0.3630     1.0850    -1.0310 c3         1 LUT      -0.083100
     18 C18         -0.4210     0.9040     3.8730 c3         1 LUT      -0.049900
     19 C19         -5.0760    -0.2200     1.8790 c3         1 LUT      -0.053900
     20 C20         -9.7080     2.8050     1.7270 c3         1 LUT      -0.051900
     21 O3           3.5700     0.5820     1.1950 oh         1 LUT      -0.605800
     22 C21        -20.9450    10.2650    -6.0460 c3         1 LUT      -0.074000
     23 C22        -22.4480    10.4320    -6.3550 c3         1 LUT      -0.072400
     24 C23        -23.1600    11.5340    -5.5670 c3         1 LUT       0.183300
     25 C24        -22.6340    11.7060    -4.1370 c2         1 LUT      -0.160200
     26 C25        -21.4790    11.1640    -3.6930 c2         1 LUT      -0.081400
     27 C26        -20.5440    10.3040    -4.5340 c3         1 LUT      -0.003300
     28 C27        -18.6070    11.9420    -2.6760 c2         1 LUT      -0.211200
     29 C28        -17.7050    11.0150    -2.2560 ce         1 LUT      -0.187000
     30 C29        -16.2320    11.1050    -2.2850 ce         1 LUT      -0.052200
     31 C30        -15.5210    10.0620    -1.8040 cf         1 LUT      -0.156000
     32 C31        -14.0880     9.9340    -1.7380 cf         1 LUT      -0.106000
     33 C32        -13.5240     8.8350    -1.1990 ce         1 LUT      -0.142000
     34 C33        -12.1050     8.4970    -1.0080 ce         1 LUT      -0.058200
     35 C34        -11.8230     7.3150    -0.4190 cf         1 LUT      -0.139000
     36 C35        -10.5360     6.7510    -0.1280 cf         1 LUT      -0.115000
     37 C37        -20.5300     8.9120    -6.6400 c3         1 LUT      -0.083600
     38 C38        -21.1940    11.4600    -2.2640 c3         1 LUT      -0.054900
     39 C39        -15.6130    12.3560    -2.8380 c3         1 LUT      -0.055900
     40 C40        -11.0720     9.4890    -1.4740 c3         1 LUT      -0.052900
     41 O23        -24.5620    11.2960    -5.5560 oh         1 LUT      -0.598800
     42 H21          1.8690    -0.8760    -0.5480 hc         1 LUT       0.050700
     43 H22          1.8690     0.8770    -0.5480 hc         1 LUT       0.050700
     44 H3           2.4210    -1.0350     1.6270 h1         1 LUT       0.017700
     45 H41          1.8760     0.2640     3.4030 hc         1 LUT       0.055200
     46 H42          1.7890     1.7350     2.4540 hc         1 LUT       0.055200
     47 H7          -2.5870    -0.7710     1.5550 ha         1 LUT       0.120000
     48 H8          -2.6530     2.2490     1.3610 ha         1 LUT       0.121000
     49 H10         -4.7220     3.1800     1.2080 ha         1 LUT       0.122000
     50 H11         -7.2540     1.5260     1.9380 ha         1 LUT       0.126000
     51 H12         -6.6730     4.2940     0.8390 ha         1 LUT       0.113000
     52 H14         -8.2870     5.6340     0.3010 ha         1 LUT       0.117000
     53 H15        -11.2850     4.9890     0.7530 ha         1 LUT       0.128000
     54 H161        -1.5190    -1.3120    -0.7940 hc         1 LUT       0.037033
     55 H162         0.0950    -1.5800    -1.4670 hc         1 LUT       0.037033
     56 H163        -0.2830    -2.1330     0.1700 hc         1 LUT       0.037033
     57 H171        -1.4170     1.0160    -1.2710 hc         1 LUT       0.037033
     58 H172        -0.1510     2.0630    -0.6160 hc         1 LUT       0.037033
     59 H173         0.2220     0.9390    -1.9300 hc         1 LUT       0.037033
     60 H181         0.4250     0.8450     4.5480 hc         1 LUT       0.044367
     61 H182        -0.8440     1.9000     3.9100 hc         1 LUT       0.044367
     62 H183        -1.1720     0.1820     4.1710 hc         1 LUT       0.044367
     63 H191        -4.4650    -0.7190     2.6210 hc         1 LUT       0.044033
     64 H192        -6.0870    -0.1170     2.2540 hc         1 LUT       0.044033
     65 H193        -5.0870    -0.8050     0.9680 hc         1 LUT       0.044033
     66 H201        -9.3120     2.3520     2.6280 hc         1 LUT       0.044033
     67 H202       -10.6550     3.2820     1.9480 hc         1 LUT       0.044033
     68 H203        -9.8570     2.0400     0.9740 hc         1 LUT       0.044033
     69 HO3          4.2300    -0.0650     1.3820 ho         1 LUT       0.402000
     70 H221       -22.5530    10.6500    -7.4110 hc         1 LUT       0.055200
     71 H222       -22.9430     9.4920    -6.1450 hc         1 LUT       0.055200
     72 H23        -22.9880    12.4670    -6.0890 h1         1 LUT       0.031700
     73 H24        -23.2210    12.2970    -3.4450 ha         1 LUT       0.136000
     74 H26        -20.0850     9.3430    -4.3320 hc         1 LUT       0.108700
     75 H27        -18.7290    13.0180    -2.6840 ha         1 LUT       0.155000
     76 H28        -17.8520    10.0030    -2.6120 ha         1 LUT       0.121000
     77 H30        -16.0830     9.2170    -1.4250 ha         1 LUT       0.121000
     78 H31        -13.4600    10.7350    -2.1100 ha         1 LUT       0.122000
     79 H32        -14.2100     8.0810    -0.8330 ha         1 LUT       0.113000
     80 H34        -12.6670     6.7020    -0.1300 ha         1 LUT       0.118000
     81 H35         -9.6470     7.2840    -0.4440 ha         1 LUT       0.123000
     82 H361       -20.2770    11.1760    -7.9000 hc         1 LUT       0.038533
     83 H362       -19.1500    11.3770    -6.5510 hc         1 LUT       0.038533
     84 H363       -20.6350    12.3370    -6.6150 hc         1 LUT       0.038533
     85 H371       -20.9640     8.1110    -6.0530 hc         1 LUT       0.038533
     86 H372       -19.4500     8.8260    -6.6250 hc         1 LUT       0.038533
     87 H373       -20.8840     8.8420    -7.6620 hc         1 LUT       0.038533
     88 H381       -22.1260    11.5820    -1.7270 hc         1 LUT       0.051367
     89 H382       -20.6320    10.6400    -1.8310 hc         1 LUT       0.051367
     90 H383       -20.6140    12.3720    -2.1930 hc         1 LUT       0.051367
     91 H391       -16.1440    13.2200    -2.4580 hc         1 LUT       0.042700
     92 H392       -14.5740    12.4090    -2.5340 hc         1 LUT       0.042700
     93 H393       -15.6730    12.3410    -3.9190 hc         1 LUT       0.042700
     94 H401       -11.2070     9.6810    -2.5320 hc         1 LUT       0.044367
     95 H402       -10.0810     9.0850    -1.3040 hc         1 LUT       0.044367
     96 H403       -11.1850    10.4140    -0.9220 hc         1 LUT       0.044367
     97 H1         -25.0130    12.0640    -5.8650 ho         1 LUT       0.403000
     98 C36        -20.1950    11.3730    -6.8380 c3         1 LUT      -0.083600
@<TRIPOS>BOND
     1     1     2 1
     2     1     6 1
     3     1    16 1
     4     1    17 1
     5     2     3 1
     6     2    42 1
     7     2    43 1
     8     3     4 1
     9     3    21 1
    10     3    44 1
    11     4     5 1
    12     4    45 1
    13     4    46 1
    14     5     6 2
    15     5    18 1
    16     6     7 1
    17     7     8 2
    18     7    47 1
    19     8     9 1
    20     8    48 1
    21     9    10 2
    22     9    19 1
    23    10    11 1
    24    10    49 1
    25    11    12 2
    26    11    50 1
    27    12    13 1
    28    12    51 1
    29    13    14 2
    30    13    20 1
    31    14    15 1
    32    14    52 1
    33    15    36 2
    34    15    53 1
    35    16    54 1
    36    16    55 1
    37    16    56 1
    38    17    57 1
    39    17    58 1
    40    17    59 1
    41    18    60 1
    42    18    61 1
    43    18    62 1
    44    19    63 1
    45    19    64 1
    46    19    65 1
    47    20    66 1
    48    20    67 1
    49    20    68 1
    50    21    69 1
    51    22    23 1
    52    22    27 1
    53    22    98 1
    54    22    37 1
    55    23    24 1
    56    23    70 1
    57    23    71 1
    58    24    25 1
    59    24    41 1
    60    24    72 1
    61    25    26 2
    62    25    73 1
    63    26    27 1
    64    26    38 1
    65    27    28 1
    66    27    74 1
    67    28    29 2
    68    28    75 1
    69    29    30 1
    70    29    76 1
    71    30    31 2
    72    30    39 1
    73    31    32 1
    74    31    77 1
    75    32    33 2
    76    32    78 1
    77    33    34 1
    78    33    79 1
    79    34    35 2
    80    34    40 1
    81    35    36 1
    82    35    80 1
    83    36    81 1
    84    98    82 1
    85    98    83 1
    86    98    84 1
    87    37    85 1
    88    37    86 1
    89    37    87 1
    90    38    88 1
    91    38    89 1
    92    38    90 1
    93    39    91 1
    94    39    92 1
    95    39    93 1
    96    40    94 1
    97    40    95 1
    98    40    96 1
    99    41    97 1
@<TRIPOS>SUBSTRUCTURE
     1 LUT         1 TEMP              0 ****  ****    0 ROOT
