@<TRIPOS>MOLECULE
LUT
   98    95     1     0     0
SMALL
bcc


@<TRIPOS>ATOM
      1 C1          0.4130   -0.1530   -0.0570 c2        1 LUT     -0.103000
      2 C2          1.6040   -0.2550   -0.9440 c3        1 LUT     -0.154000
      3 C3          2.6710   -1.2260   -0.4330 c3        1 LUT      0.062000
      4 C4          2.7520   -1.2890    1.0580 c2        1 LUT     -0.214000
      5 C5          1.7040   -0.9740    1.8420 c2        1 LUT     -0.055000
      6 C6          0.4710   -0.4800    1.2480 c2        1 LUT     -0.144000
      7 C7         -2.6000    0.5080    2.4160 c1        1 LUT      0.186000
      8 C8         -3.5610    1.3070    1.9980 c2        1 LUT     -0.438000
      9 C9         -4.7620    1.7100    2.7050 c2        1 LUT     -0.026000
     10 C10        -5.6530    2.5360    2.1140 c2        1 LUT     -0.132000
     11 C11        -6.8750    2.9960    2.7350 c2        1 LUT     -0.153000
     12 C12        -7.7360    3.8160    2.1140 c2        1 LUT     -0.110000
     13 C13        -8.9950    4.3100    2.7490 c3        1 LUT     -0.121000
     14 C14        -9.6020    5.3530    1.9220 c1        1 LUT     -0.039000
     15 C15       -11.0090    5.5510    1.8670 c2        1 LUT     -0.186000
     16 C16        -0.8180    0.3710   -0.6910 c3        1 LUT     -0.177000
     17 C17        -3.7490    2.8160   -1.3120 c3        1 LUT     -0.277000
     18 C18         1.7360   -1.1010    3.3170 c3        1 LUT     -0.179000
     19 C19        -4.9480    1.1750    4.0790 c3        1 LUT     -0.186000
     20 C20        -9.8990    3.1580    3.1530 c3        1 LUT     -0.224000
     21 O3          3.9320   -0.9160   -1.0080 oh        1 LUT     -0.324000
     22 C21       -19.1830    9.6420   -7.9430 c2        1 LUT     -0.106000
     23 C22       -23.5440   11.3180   -6.3410 c3        1 LUT     -0.243000
     24 C23       -22.6460   12.2390   -5.5250 c3        1 LUT      0.143000
     25 C24       -21.7430   11.4800   -4.6890 c1        1 LUT     -0.223000
     26 C25       -20.9820   10.8590   -4.0040 c1        1 LUT     -0.132000
     27 C26       -18.8040    9.1800   -6.7480 c2        1 LUT     -0.232000
     28 C27       -18.7050   10.7440   -3.0990 c3        1 LUT     -0.191000
     29 C28       -17.8420   10.0020   -2.1940 c1        1 LUT     -0.084000
     30 C29       -16.4640   10.3270   -2.0240 c2        1 LUT     -0.208000
     31 C30       -15.7690    9.5340   -1.1650 c2        1 LUT      0.039000
     32 C31       -14.3270    9.7200   -0.8740 c3        1 LUT     -0.231000
     33 C32       -13.7800    8.6390   -0.0640 c1        1 LUT     -0.028000
     34 C33       -12.3350    8.5260    0.1380 c3        1 LUT     -0.123000
     35 C34       -12.0500    7.9180    1.4760 c2        1 LUT     -0.105000
     36 C35       -11.5320    6.7350    1.6310 c1        1 LUT     -0.023000
     37 C37       -18.5790    9.1620   -9.2100 c3        1 LUT     -0.186500
     38 C38       -20.0860   10.1040   -3.1790 c3        1 LUT     -0.044000
     39 C39       -15.7990   11.4500   -2.7350 c3        1 LUT     -0.205000
     40 C40       -11.5180    9.7950   -0.0250 c3        1 LUT     -0.229000
     41 O23       -23.4250   13.1620   -4.7730 oh        1 LUT     -0.318000
     42 H21        -3.8140    3.2790   -2.3200 hc        1 LUT      0.070000
     43 H22         1.2910   -0.5790   -1.9720 hc        1 LUT      0.095000
     44 H3          2.0550    0.7710   -1.0500 hc        1 LUT      0.095000
     45 H41         2.4550   -2.2660   -0.8240 h1        1 LUT      0.120000
     46 H42         3.7060   -1.6530    1.4640 ha        1 LUT      0.137000
     47 H7         -0.4050   -0.3780    1.9130 ha        1 LUT      0.155000
     48 H8         -3.4440    1.7320    0.9720 ha        1 LUT      0.196000
     49 H10        -5.4630    2.9020    1.0880 ha        1 LUT      0.125000
     50 H11        -7.0730    2.6380    3.7600 ha        1 LUT      0.122000
     51 H12        -7.5420    4.1940    1.0960 ha        1 LUT      0.143000
     52 H14        -8.7030    4.8810    3.6930 hc        1 LUT      0.143000
     53 H15       -11.6950    4.6820    1.9620 ha        1 LUT      0.133000
     54 H161       -1.6300    0.5240    0.0650 hc        1 LUT      0.078667
     55 H162       -1.1890   -0.3470   -1.4650 hc        1 LUT      0.078667
     56 H163       -0.6100    1.3490   -1.1930 hc        1 LUT      0.078667
     57 H171       -2.8440    2.1700   -1.2600 hc        1 LUT      0.070000
     58 H172       -3.6830    3.6150   -0.5410 hc        1 LUT      0.070000
     59 H173       -4.6570    2.2000   -1.1290 hc        1 LUT      0.070000
     60 H181        1.5260   -0.1110    3.7920 hc        1 LUT      0.084000
     61 H182        0.9510   -1.8230    3.6550 hc        1 LUT      0.084000
     62 H183        2.7310   -1.4640    3.6740 hc        1 LUT      0.084000
     63 H191       -5.0080    2.0150    4.8160 hc        1 LUT      0.086667
     64 H192       -4.1050    0.5060    4.3810 hc        1 LUT      0.086667
     65 H193       -5.8990    0.5890    4.1410 hc        1 LUT      0.086667
     66 H201       -9.3410    2.4280    3.7880 hc        1 LUT      0.079333
     67 H202      -10.7740    3.5370    3.7340 hc        1 LUT      0.079333
     68 H203      -10.2750    2.6220    2.2490 hc        1 LUT      0.079333
     69 HO3         4.2110   -0.0650   -0.6500 ho        1 LUT      0.197000
     70 H221      -22.9240   10.6960   -7.0300 hc        1 LUT      0.087333
     71 H222      -24.1300   10.6440   -5.6730 hc        1 LUT      0.087333
     72 H23       -24.2560   11.9340   -6.9410 hc        1 LUT      0.087333
     73 H24       -22.0470   12.9070   -6.2170 h1        1 LUT      0.125000
     74 H26       -18.0250    8.4160   -6.6330 ha        1 LUT      0.113500
     75 H27       -18.2600   10.8050   -4.1340 hc        1 LUT      0.110000
     76 H28       -18.8070   11.8060   -2.7290 hc        1 LUT      0.110000
     77 H30       -16.2720    8.6980   -0.6420 ha        1 LUT      0.174000
     78 H31       -14.1940   10.6890   -0.2970 hc        1 LUT      0.135500
     79 H32       -13.7610    9.8630   -1.8420 hc        1 LUT      0.135500
     80 H34       -12.0240    7.7900   -0.6760 hc        1 LUT      0.154000
     81 H35       -12.3190    8.5410    2.3480 ha        1 LUT      0.155000
     82 H361      -19.8380   11.5560   -8.6520 hc        1 LUT      0.080500
     83 H362      -20.6260   11.0190   -7.1060 hc        1 LUT      0.080500
     84 H363      -21.0980   10.2550   -8.6830 hc        1 LUT      0.080500
     85 H371      -19.3700    8.7240   -9.8700 hc        1 LUT      0.080500
     86 H372      -18.1030   10.0140   -9.7560 hc        1 LUT      0.080500
     87 H373      -17.8020    8.3810   -9.0250 hc        1 LUT      0.080500
     88 H381      -19.2540    9.5350   -5.8100 ha        1 LUT      0.113500
     89 H382      -19.9860    9.0590   -3.5870 hc        1 LUT      0.113000
     90 H383      -20.5120   10.0140   -2.1410 hc        1 LUT      0.113000
     91 H391      -16.5480   12.1350   -3.2000 hc        1 LUT      0.077333
     92 H392      -15.1330   11.0590   -3.5450 hc        1 LUT      0.077333
     93 H393      -15.1690   12.0530   -2.0330 hc        1 LUT      0.077333
     94 H401      -11.8420   10.5660    0.7150 hc        1 LUT      0.083667
     95 H402      -10.4340    9.5830    0.1390 hc        1 LUT      0.083667
     96 H403      -11.6460   10.2110   -1.0530 hc        1 LUT      0.083667
     97 H1        -23.9360   12.6550   -4.1310 ho        1 LUT      0.202000
     98 C36       -20.2400   10.6710   -8.0980 c3        1 LUT     -0.186500
@<TRIPOS>BOND
     1    1    2 1   
     2    1    6 1   
     3    1   16 1   
     4    2    3 1   
     5    2   43 1   
     6    2   44 1   
     7    3    4 1   
     8    3   21 1   
     9    3   45 1   
    10    4    5 1   
    11    4   46 1   
    12    5    6 1   
    13    5   18 1   
    14    6   47 1   
    15    7    8 1   
    16    8    9 1   
    17    8   48 1   
    18    9   10 1   
    19    9   19 1   
    20   10   11 1   
    21   10   49 1   
    22   11   12 1   
    23   11   50 1   
    24   12   13 1   
    25   12   51 1   
    26   13   14 1   
    27   13   20 1   
    28   13   52 1   
    29   14   15 1   
    30   15   36 1   
    31   15   53 1   
    32   16   54 1   
    33   16   55 1   
    34   16   56 1   
    35   17   42 1   
    36   17   57 1   
    37   17   58 1   
    38   17   59 1   
    39   18   60 1   
    40   18   61 1   
    41   18   62 1   
    42   19   63 1   
    43   19   64 1   
    44   19   65 1   
    45   20   66 1   
    46   20   67 1   
    47   20   68 1   
    48   21   69 1   
    49   22   27 1   
    50   22   37 1   
    51   22   98 1   
    52   23   24 1   
    53   23   70 1   
    54   23   71 1   
    55   23   72 1   
    56   24   25 1   
    57   24   41 1   
    58   24   73 1   
    59   25   26 1   
    60   26   38 1   
    61   27   74 1   
    62   27   88 1   
    63   28   29 1   
    64   28   38 1   
    65   28   75 1   
    66   28   76 1   
    67   29   30 1   
    68   30   31 1   
    69   30   39 1   
    70   31   32 1   
    71   31   77 1   
    72   32   33 1   
    73   32   78 1   
    74   32   79 1   
    75   33   34 1   
    76   34   35 1   
    77   34   40 1   
    78   34   80 1   
    79   35   36 1   
    80   35   81 1   
    81   37   85 1   
    82   37   86 1   
    83   37   87 1   
    84   38   89 1   
    85   38   90 1   
    86   39   91 1   
    87   39   92 1   
    88   39   93 1   
    89   40   94 1   
    90   40   95 1   
    91   40   96 1   
    92   41   97 1   
    93   82   98 1   
    94   83   98 1   
    95   84   98 1   
@<TRIPOS>SUBSTRUCTURE
     1 LUT         1 TEMP              0 ****  ****    0 ROOT
