@<TRIPOS>MOLECULE
LUV
   73    77     1     0     0
SMALL
bcc


@<TRIPOS>ATOM
      1 O2           0.0000     0.0000     0.0000 o          1 LUV      -0.723500
      2 C30          1.2160     0.0000     0.0000 c          1 LUV       0.623500
      3 N3           1.9470     0.0000     1.1230 ns         1 LUV      -0.212900
      4 C            3.3740     0.0000     0.7690 c3         1 LUV       0.008700
      5 N2           1.9470    -0.0070    -1.1220 ns         1 LUV      -0.216900
      6 C29          3.3750    -0.0010    -0.7660 c3         1 LUV       0.009700
      7 C2           4.0440    -1.2590    -1.3520 c3         1 LUV       0.065400
      8 S            3.8510    -2.4880     0.0030 ss         1 LUV      -0.398200
      9 C1           4.0430    -1.2570     1.3560 c3         1 LUV       0.087700
     10 C3           3.3140    -1.7240    -2.6140 c3         1 LUV      -0.016400
     11 C4           4.0730    -2.8950    -3.2390 c3         1 LUV      -0.036400
     12 C5           3.3430    -3.3610    -4.5010 c3         1 LUV      -0.014400
     13 C6           4.1030    -4.5330    -5.1260 c3         1 LUV      -0.094400
     14 C7           3.3840    -4.9910    -6.3700 c          1 LUV       0.571100
     15 O            2.3640    -4.4340    -6.7210 o          1 LUV      -0.646100
     16 N            3.8740    -6.0170    -7.0920 ns         1 LUV      -0.195900
     17 C8           3.1750    -6.4630    -8.3000 c3         1 LUV       0.037000
     18 C9           3.9340    -7.6340    -8.9260 c3         1 LUV       0.033000
     19 N1           3.2350    -8.0790   -10.1340 ns         1 LUV      -0.193900
     20 C10          3.7250    -9.1070   -10.8550 c          1 LUV       0.614700
     21 O1           4.7460    -9.6640   -10.5040 o          1 LUV      -0.640100
     22 C11          3.0220    -9.5550   -12.0720 ca         1 LUV      -0.132600
     23 C16          2.0310   -10.5480   -11.9910 cp         1 LUV       0.008000
     24 C17          1.6860   -11.1520   -10.6830 cp         1 LUV      -0.049000
     25 C22          0.3540   -11.2350   -10.2800 ca         1 LUV      -0.095750
     26 C21          0.0380   -11.7990    -9.0600 ca         1 LUV      -0.100000
     27 C20          1.0410   -12.2790    -8.2370 ca         1 LUV      -0.097500
     28 C19          2.3650   -12.1980    -8.6310 ca         1 LUV      -0.100000
     29 C18          2.6920   -11.6430    -9.8520 ca         1 LUV      -0.095750
     30 C15          1.3740   -10.9620   -13.1470 ca         1 LUV      -0.099500
     31 C14          1.6930   -10.4010   -14.3680 ca         1 LUV      -0.084000
     32 C13          2.6660    -9.4230   -14.4610 ca         1 LUV      -0.099500
     33 C12          3.3330    -8.9880   -13.3190 cp         1 LUV       0.008000
     34 C23          4.3710    -7.9350   -13.4210 cp         1 LUV      -0.049000
     35 C28          5.3890    -8.0440   -14.3670 ca         1 LUV      -0.095750
     36 C27          6.3530    -7.0600   -14.4570 ca         1 LUV      -0.100000
     37 C26          6.3100    -5.9670   -13.6090 ca         1 LUV      -0.097500
     38 C25          5.3030    -5.8540   -12.6680 ca         1 LUV      -0.100000
     39 C24          4.3300    -6.8280   -12.5740 ca         1 LUV      -0.095750
     40 H3           1.5800     0.0000     2.0550 hn         1 LUV       0.214500
     41 H2           1.5820    -0.0120    -2.0540 hn         1 LUV       0.222500
     42 H            3.8550     0.8950     1.1450 h1         1 LUV       0.037700
     43 H29          3.8540     0.8930    -1.1440 h1         1 LUV       0.039700
     44 H11C         3.5230    -1.5860     2.2480 h1         1 LUV       0.054700
     45 H12C         5.0910    -1.0730     1.5590 h1         1 LUV       0.054700
     46 HA           5.0920    -1.0750    -1.5530 h1         1 LUV       0.058700
     47 H31C         2.3110    -2.0400    -2.3550 hc         1 LUV       0.034200
     48 H32C         3.2630    -0.9070    -3.3230 hc         1 LUV       0.034200
     49 H41C         5.0760    -2.5790    -3.4990 hc         1 LUV       0.022200
     50 H42C         4.1250    -3.7130    -2.5300 hc         1 LUV       0.022200
     51 H51C         3.2920    -2.5440    -5.2100 hc         1 LUV       0.032200
     52 H52C         2.3400    -3.6780    -4.2410 hc         1 LUV       0.032200
     53 H61C         5.1060    -4.2160    -5.3850 hc         1 LUV       0.028700
     54 H62C         4.1540    -5.3500    -4.4170 hc         1 LUV       0.028700
     55 HB           4.7150    -6.4760    -6.8030 hn         1 LUV       0.177500
     56 H81C         3.1240    -5.6450    -9.0090 h1         1 LUV       0.029200
     57 H82C         2.1720    -6.7790    -8.0410 h1         1 LUV       0.029200
     58 H91C         3.9850    -8.4510    -8.2170 h1         1 LUV       0.029700
     59 H92C         4.9370    -7.3180    -9.1850 h1         1 LUV       0.029700
     60 H1           2.3700    -7.6510   -10.3980 hn         1 LUV       0.185500
     61 H15          0.6100   -11.7270   -13.0880 ha         1 LUV       0.112500
     62 H22         -0.4320   -10.8600   -10.9240 ha         1 LUV       0.117750
     63 H18          3.7280   -11.5810   -10.1590 ha         1 LUV       0.117750
     64 H21         -0.9970   -11.8640    -8.7460 ha         1 LUV       0.103750
     65 H20          0.7900   -12.7170    -7.2790 ha         1 LUV       0.102000
     66 H19          3.1450   -12.5780    -7.9830 ha         1 LUV       0.103750
     67 H14          1.1780   -10.7320   -15.2620 ha         1 LUV       0.104000
     68 H13          2.9060    -8.9900   -15.4240 ha         1 LUV       0.112500
     69 H28          5.4240    -8.8990   -15.0320 ha         1 LUV       0.117750
     70 H24          3.5420    -6.7380   -11.8360 ha         1 LUV       0.117750
     71 H27          7.1440    -7.1440   -15.1920 ha         1 LUV       0.103750
     72 H26          7.0700    -5.1990   -13.6820 ha         1 LUV       0.102000
     73 H25          5.2730    -4.9950   -12.0090 ha         1 LUV       0.103750
@<TRIPOS>BOND
     1     1     2 2   
     2     2     3 1   
     3     2     5 1   
     4     3     4 1   
     5     3    40 1   
     6     4     6 1   
     7     4     9 1   
     8     4    42 1   
     9     5     6 1   
    10     5    41 1   
    11     6     7 1   
    12     6    43 1   
    13     7     8 1   
    14     7    10 1   
    15     7    46 1   
    16     8     9 1   
    17     9    44 1   
    18     9    45 1   
    19    10    11 1   
    20    10    47 1   
    21    10    48 1   
    22    11    12 1   
    23    11    49 1   
    24    11    50 1   
    25    12    13 1   
    26    12    51 1   
    27    12    52 1   
    28    13    14 1   
    29    13    53 1   
    30    13    54 1   
    31    14    15 2   
    32    14    16 1   
    33    16    17 1   
    34    16    55 1   
    35    17    18 1   
    36    17    56 1   
    37    17    57 1   
    38    18    19 1   
    39    18    58 1   
    40    18    59 1   
    41    19    20 1   
    42    19    60 1   
    43    20    21 2   
    44    20    22 1   
    45    22    23 ar  
    46    22    33 ar  
    47    23    24 1   
    48    23    30 ar  
    49    24    25 ar  
    50    24    29 ar  
    51    25    26 ar  
    52    25    62 1   
    53    26    27 ar  
    54    26    64 1   
    55    27    28 ar  
    56    27    65 1   
    57    28    29 ar  
    58    28    66 1   
    59    29    63 1   
    60    30    31 ar  
    61    30    61 1   
    62    31    32 ar  
    63    31    67 1   
    64    32    33 ar  
    65    32    68 1   
    66    33    34 1   
    67    34    35 ar  
    68    34    39 ar  
    69    35    36 ar  
    70    35    69 1   
    71    36    37 ar  
    72    36    71 1   
    73    37    38 ar  
    74    37    72 1   
    75    38    39 ar  
    76    38    73 1   
    77    39    70 1   
@<TRIPOS>SUBSTRUCTURE
     1 LUV         1 TEMP              0 ****  ****    0 ROOT
