@<TRIPOS>MOLECULE
molecule
   16    17     1     0     0
SMALL
bcc


@<TRIPOS>ATOM
      1 N1           0.0000     0.0000     0.0000 ns         1 LUZ      -0.523400
      2 C2           1.3430     0.0000     0.0000 c          1 LUZ       0.818500
      3 C10         -0.7090     0.0000     1.1880 ca         1 LUZ       0.459900
      4 O2           1.9250    -0.0000    -1.0670 o          1 LUZ      -0.639500
      5 N3           2.0720     0.0000     1.1280 ns         1 LUZ      -0.565500
      6 C4           1.4790     0.0000     2.3420 c          1 LUZ       0.607000
      7 O4           2.1440    -0.0010     3.3600 o          1 LUZ      -0.559500
      8 C4A          0.0030     0.0010     2.4000 ca         1 LUZ       0.205500
      9 N5          -0.6480    -0.0000     3.5550 nb         1 LUZ      -0.556000
     10 C5A         -1.9670    -0.0000     3.5580 ca         1 LUZ       0.253900
     11 C9A         -2.6730    -0.0000     2.3610 ca         1 LUZ       0.364900
     12 N10         -2.0340    -0.0000     1.2050 nb         1 LUZ      -0.701000
     13 HN1         -0.4940    -0.0000    -0.8700 hn         1 LUZ       0.373500
     14 HN3          3.0710    -0.0000     1.0690 hn         1 LUZ       0.373500
     15 H5A         -2.5040     0.0000     4.4990 h4         1 LUZ       0.046100
     16 H9A         -3.7560    -0.0000     2.3760 h4         1 LUZ       0.042100
@<TRIPOS>BOND
     1     1     2 1
     2     1     3 1
     3     2     4 2
     4     2     5 1
     5     3     8 ar
     6     3    12 ar
     7     5     6 1
     8     6     7 2
     9     6     8 1
    10     8     9 ar
    11     9    10 ar
    12    10    11 ar
    13    11    12 ar
    14     1    13 1
    15     5    14 1
    16    10    15 1
    17    11    16 1
@<TRIPOS>SUBSTRUCTURE
     1 LUZ         1 TEMP              0 ****  ****    0 ROOT
