@<TRIPOS>MOLECULE
LUZ
   16    17     1     0     0
SMALL
bcc


@<TRIPOS>ATOM
      1 N1           0.0000     0.0000     0.0000 ns         1 LUZ      -0.061400
      2 C2           1.3430     0.0000     0.0000 c          1 LUZ       0.583500
      3 C10         -0.7090     0.0000     1.1880 ca         1 LUZ       0.270900
      4 O2           1.9250    -0.0000    -1.0670 o          1 LUZ      -0.691500
      5 N3           2.0720     0.0000     1.1280 ns         1 LUZ      -0.136500
      6 C4           1.4790     0.0000     2.3420 c          1 LUZ       0.514000
      7 O4           2.1440    -0.0010     3.3600 o          1 LUZ      -0.602500
      8 C4A          0.0030     0.0010     2.4000 ca         1 LUZ       0.144500
      9 N5          -0.6480    -0.0000     3.5550 nb         1 LUZ      -0.424000
     10 C5A         -1.9670    -0.0000     3.5580 ca         1 LUZ       0.229900
     11 C9A         -2.6730    -0.0000     2.3610 ca         1 LUZ       0.358900
     12 N10         -2.0340    -0.0000     1.2050 nb         1 LUZ      -0.593000
     13 HN1         -0.4940    -0.0000    -0.8700 hn         1 LUZ       0.203500
     14 HN3          3.0710    -0.0000     1.0690 hn         1 LUZ       0.212500
     15 H5A         -2.5040     0.0000     4.4990 h4         1 LUZ       0.000100
     16 H9A         -3.7560    -0.0000     2.3760 h4         1 LUZ      -0.006900
@<TRIPOS>BOND
     1     1     2 1   
     2     1     3 1   
     3     1    13 1   
     4     2     4 2   
     5     2     5 1   
     6     3     8 ar  
     7     3    12 ar  
     8     5     6 1   
     9     5    14 1   
    10     6     7 2   
    11     6     8 1   
    12     8     9 ar  
    13     9    10 ar  
    14    10    11 ar  
    15    10    15 1   
    16    11    12 ar  
    17    11    16 1   
@<TRIPOS>SUBSTRUCTURE
     1 LUZ         1 TEMP              0 ****  ****    0 ROOT
