@<TRIPOS>MOLECULE
LVA
   67    68     1     0     0
SMALL
bcc


@<TRIPOS>ATOM
      1 O1          0.7040    3.0960    1.6020 o         1 LVA     -0.846300
      2 O2          3.3200   -0.1530    0.6200 oh        1 LVA     -0.674800
      3 O3          1.4780    1.8080   -0.0490 o         1 LVA     -0.846300
      4 O8          5.8100   -1.3190    1.5180 oh        1 LVA     -0.634800
      5 O4         10.1970    0.5610    1.9190 os        1 LVA     -0.425900
      6 C5         10.9170   -1.8040    6.1350 ce        1 LVA     -0.147000
      7 C6         11.2320   -0.6680    5.2770 ce        1 LVA     -0.077200
      8 C7          5.7010   -0.1840    2.3700 c3        1 LVA      0.154100
      9 C8          9.7400   -2.4360    6.0240 c2        1 LVA     -0.146200
     10 C9         10.4810   -0.6870    3.9700 c3        1 LVA     -0.020500
     11 C10         1.3760    2.1170    1.1780 c         1 LVA      0.909600
     12 C11         8.6920   -2.0670    5.0250 c3        1 LVA     -0.036500
     13 C12         8.9890   -0.7170    4.3460 c3        1 LVA     -0.036700
     14 C13         3.4560    0.7740    1.6900 c3        1 LVA      0.171100
     15 C14        12.0120    0.3460    5.6840 c2        1 LVA     -0.166200
     16 C15        11.0360    0.4260    3.0750 c3        1 LVA      0.157100
     17 C16         6.5870   -0.4660    3.5840 c3        1 LVA     -0.081400
     18 C17         4.2580    0.0740    2.7880 c3        1 LVA     -0.122400
     19 C18         8.0500   -0.4270    3.1930 c3        1 LVA     -0.073400
     20 C19        11.1640    1.7480    3.8160 c3        1 LVA     -0.097400
     21 C20         8.5180   -3.2100    4.0410 c3        1 LVA     -0.091100
     22 C21         2.1040    1.2380    2.2080 c3        1 LVA     -0.234400
     23 C22        12.2240    1.5950    4.9010 c3        1 LVA     -0.028500
     24 C23        12.2270    2.8080    5.8090 c3        1 LVA     -0.085100
     25 C24        10.7450    1.0750    0.7760 c         1 LVA      0.634100
     26 C25         9.7460    1.1350   -0.3520 c3        1 LVA     -0.107700
     27 O26        11.9340    1.4030    0.7800 o         1 LVA     -0.559000
     28 C27        10.4550    1.4600   -1.6590 c3        1 LVA     -0.077400
     29 C28         8.6640    2.1450   -0.0260 c3        1 LVA     -0.092100
     30 C29         9.6270    1.0720   -2.8560 c3        1 LVA     -0.094100
     31 HO2         2.6710    0.2310    0.0020 ho        1 LVA      0.465000
     32 HO8         5.0890   -1.2580    0.8750 ho        1 LVA      0.436000
     33 H5         11.6660   -2.0910    6.8870 ha        1 LVA      0.121000
     34 H7          6.0990    0.7150    1.8130 h1        1 LVA      0.027700
     35 H8          9.4860   -3.2860    6.6760 ha        1 LVA      0.118000
     36 H9         10.7060   -1.6550    3.4330 hc        1 LVA      0.065700
     37 H11         7.7190   -1.9430    5.5870 hc        1 LVA      0.058700
     38 H12         8.8200    0.0870    5.1210 hc        1 LVA      0.045700
     39 H13         4.0330    1.6670    1.3120 h1        1 LVA      0.027700
     40 H14        12.5270    0.3050    6.6570 ha        1 LVA      0.120000
     41 H15        12.0640    0.1070    2.7270 h1        1 LVA      0.062700
     42 H161        6.3110   -1.4690    4.0000 hc        1 LVA      0.041200
     43 H162        6.3830    0.3030    4.3730 hc        1 LVA      0.041200
     44 H171        3.7670   -0.9000    3.0390 hc        1 LVA      0.049200
     45 H172        4.2440    0.7240    3.7000 hc        1 LVA      0.049200
     46 H181        8.2350   -1.1410    2.3490 hc        1 LVA      0.058200
     47 H182        8.2680    0.6080    2.8090 hc        1 LVA      0.058200
     48 H191       10.1780    2.0300    4.2660 hc        1 LVA      0.059200
     49 H192       11.4640    2.5530    3.0970 hc        1 LVA      0.059200
     50 H201        9.4270   -3.3330    3.4050 hc        1 LVA      0.040700
     51 H202        8.3440   -4.1650    4.5950 hc        1 LVA      0.040700
     52 H203        7.6420   -3.0220    3.3730 hc        1 LVA      0.040700
     53 H211        1.4590    0.3500    2.4220 hc        1 LVA      0.036700
     54 H212        2.2370    1.8150    3.1550 hc        1 LVA      0.036700
     55 H22        13.2350    1.5220    4.4010 hc        1 LVA      0.056700
     56 H231       12.3850    3.7350    5.2070 hc        1 LVA      0.034700
     57 H232       13.0470    2.7280    6.5630 hc        1 LVA      0.034700
     58 H233       11.2550    2.8980    6.3500 hc        1 LVA      0.034700
     59 H25         9.2720    0.1130   -0.4270 hc        1 LVA      0.090700
     60 H271       10.6860    2.5570   -1.6910 hc        1 LVA      0.051200
     61 H272       11.4380    0.9170   -1.6890 hc        1 LVA      0.051200
     62 H281        7.9070    2.1660   -0.8460 hc        1 LVA      0.051367
     63 H282        8.1500    1.8610    0.9260 hc        1 LVA      0.051367
     64 H283        9.0960    3.1680    0.0870 hc        1 LVA      0.051367
     65 H291        8.6520    1.6170   -2.8610 hc        1 LVA      0.036700
     66 H292        9.4140   -0.0250   -2.8530 hc        1 LVA      0.036700
     67 H293       10.1750    1.3220   -3.7970 hc        1 LVA      0.036700
@<TRIPOS>BOND
     1    1   11 1   
     2    2   14 1   
     3    2   31 1   
     4    3   11 1   
     5    4    8 1   
     6    4   32 1   
     7    5   16 1   
     8    5   25 1   
     9    6    7 1   
    10    6    9 2   
    11    6   33 1   
    12    7   10 1   
    13    7   15 2   
    14    8   17 1   
    15    8   18 1   
    16    8   34 1   
    17    9   12 1   
    18    9   35 1   
    19   10   13 1   
    20   10   16 1   
    21   10   36 1   
    22   11   22 1   
    23   12   13 1   
    24   12   21 1   
    25   12   37 1   
    26   13   19 1   
    27   13   38 1   
    28   14   18 1   
    29   14   22 1   
    30   14   39 1   
    31   15   23 1   
    32   15   40 1   
    33   16   20 1   
    34   16   41 1   
    35   17   19 1   
    36   17   42 1   
    37   17   43 1   
    38   18   44 1   
    39   18   45 1   
    40   19   46 1   
    41   19   47 1   
    42   20   23 1   
    43   20   48 1   
    44   20   49 1   
    45   21   50 1   
    46   21   51 1   
    47   21   52 1   
    48   22   53 1   
    49   22   54 1   
    50   23   24 1   
    51   23   55 1   
    52   24   56 1   
    53   24   57 1   
    54   24   58 1   
    55   25   26 1   
    56   25   27 2   
    57   26   28 1   
    58   26   29 1   
    59   26   59 1   
    60   28   30 1   
    61   28   60 1   
    62   28   61 1   
    63   29   62 1   
    64   29   63 1   
    65   29   64 1   
    66   30   65 1   
    67   30   66 1   
    68   30   67 1   
@<TRIPOS>SUBSTRUCTURE
     1 LVA         1 TEMP              0 ****  ****    0 ROOT
