@<TRIPOS>MOLECULE
molecule
   67    68     1     0     0
SMALL
bcc


@<TRIPOS>ATOM
      1 O1           0.0000     0.0000     0.0000 o          1 LVA      -0.860300
      2 O2           3.9450    -1.1670     0.2760 oh         1 LVA      -0.604800
      3 O3           1.9470    -0.0000    -1.0460 o          1 LVA      -0.860300
      4 O8           6.2140    -1.1680     1.3210 oh         1 LVA      -0.585800
      5 O4          10.0090     0.8870     2.3100 os         1 LVA      -0.411900
      6 C5          10.3390    -1.3080     6.6070 ce         1 LVA      -0.151000
      7 C6          11.0560    -0.6870     5.4700 ce         1 LVA      -0.066200
      8 C7           5.8700    -0.0020     2.0700 c3         1 LVA       0.150100
      9 C8           9.0340    -1.5020     6.5290 c2         1 LVA      -0.141200
     10 C9          10.3250    -0.6200     4.1630 c3         1 LVA      -0.026500
     11 C10          1.3430     0.0000     0.0000 c          1 LVA       0.900600
     12 C11          8.2000    -1.1490     5.3360 c3         1 LVA      -0.041500
     13 C12          8.9020    -0.1330     4.4340 c3         1 LVA      -0.043700
     14 C13          3.6000    -0.0010     1.0250 c3         1 LVA       0.169100
     15 C14         12.2800    -0.2260     5.6500 c2         1 LVA      -0.177200
     16 C15         11.0130     0.1900     3.0930 c3         1 LVA       0.157100
     17 C16          6.6350    -0.0010     3.3950 c3         1 LVA      -0.107400
     18 C17          4.3660    -0.0010     2.3500 c3         1 LVA      -0.104400
     19 C18          8.1380    -0.0020     3.1150 c3         1 LVA      -0.083400
     20 C19         11.9810     1.2130     3.6830 c3         1 LVA      -0.093400
     21 C20          7.9180    -2.4180     4.5310 c3         1 LVA      -0.093100
     22 C21          2.0960     0.0000     1.3040 c3         1 LVA      -0.202400
     23 C22         13.0170     0.4640     4.5320 c3         1 LVA      -0.033500
     24 C23         14.0290     1.4570     5.1100 c3         1 LVA      -0.082100
     25 C24         10.2280     1.1400     1.0100 c          1 LVA       0.625100
     26 C25          9.1860     1.8630     0.1960 c3         1 LVA      -0.117700
     27 O26         11.2610     0.7880     0.4910 o          1 LVA      -0.559000
     28 C27          9.6800     2.0230    -1.2420 c3         1 LVA      -0.070400
     29 C28          8.9330     3.2450     0.8040 c3         1 LVA      -0.090100
     30 C29          8.6220     2.7570    -2.0670 c3         1 LVA      -0.095100
     31 HO2          4.0410    -0.9390    -0.6340 ho         1 LVA       0.412000
     32 HO8          6.5280    -0.9130     0.4700 ho         1 LVA       0.391000
     33 H5          10.8600    -1.4960     7.5380 ha         1 LVA       0.124000
     34 H7           6.1310     0.8830     1.5020 h1         1 LVA       0.014700
     35 H8           8.5360    -1.9440     7.3830 ha         1 LVA       0.116000
     36 H9          10.2490    -1.6340     3.7900 hc         1 LVA       0.068700
     37 H11          7.2620    -0.7260     5.6770 hc         1 LVA       0.063700
     38 H12          8.9390     0.8280     4.9340 hc         1 LVA       0.053700
     39 H13          3.8620     0.8840     0.4570 h1         1 LVA       0.022700
     40 H14         12.7620    -0.3500     6.6120 ha         1 LVA       0.124000
     41 H15         11.5660    -0.4810     2.4470 h1         1 LVA       0.066700
     42 H161         6.3740     0.8840     3.9630 hc         1 LVA       0.049200
     43 H162         6.3730    -0.8850     3.9640 hc         1 LVA       0.049200
     44 H171         4.1040    -0.8850     2.9180 hc         1 LVA       0.048200
     45 H172         4.1050     0.8840     2.9180 hc         1 LVA       0.048200
     46 H181         8.3850    -0.8360     2.4710 hc         1 LVA       0.065700
     47 H182         8.4140     0.9250     2.6280 hc         1 LVA       0.065700
     48 H191        11.4360     1.9110     4.3070 hc         1 LVA       0.056200
     49 H192        12.4810     1.7450     2.8830 hc         1 LVA       0.056200
     50 H201         6.8590    -2.6430     4.5710 hc         1 LVA       0.044700
     51 H202         8.4780    -3.2440     4.9510 hc         1 LVA       0.044700
     52 H203         8.2160    -2.2650     3.5010 hc         1 LVA       0.044700
     53 H211         1.8340    -0.8840     1.8720 hc         1 LVA       0.037200
     54 H212         1.8340     0.8850     1.8720 hc         1 LVA       0.037200
     55 H22         13.5260    -0.2720     3.9210 hc         1 LVA       0.060700
     56 H231        14.5320     1.9720     4.3010 hc         1 LVA       0.033700
     57 H232        14.7590     0.9220     5.7070 hc         1 LVA       0.033700
     58 H233        13.5120     2.1780     5.7320 hc         1 LVA       0.033700
     59 H25          8.2650     1.2930     0.2000 hc         1 LVA       0.082700
     60 H271         9.8600     1.0450    -1.6730 hc         1 LVA       0.054200
     61 H272        10.6010     2.5940    -1.2460 hc         1 LVA       0.054200
     62 H281         9.5710     3.9740     0.3200 hc         1 LVA       0.044700
     63 H282         9.1540     3.2190     1.8640 hc         1 LVA       0.044700
     64 H283         7.8950     3.5190     0.6580 hc         1 LVA       0.044700
     65 H291         8.7300     3.8250    -1.9240 hc         1 LVA       0.037367
     66 H292         7.6350     2.4480    -1.7450 hc         1 LVA       0.037367
     67 H293         8.7510     2.5180    -3.1150 hc         1 LVA       0.037367
@<TRIPOS>BOND
     1     1    11 1
     2     2    14 1
     3     2    31 1
     4     3    11 1
     5     4     8 1
     6     4    32 1
     7     5    16 1
     8     5    25 1
     9     6     7 1
    10     6     9 2
    11     6    33 1
    12     7    10 1
    13     7    15 2
    14     8    17 1
    15     8    18 1
    16     8    34 1
    17     9    12 1
    18     9    35 1
    19    10    13 1
    20    10    16 1
    21    10    36 1
    22    11    22 1
    23    12    13 1
    24    12    21 1
    25    12    37 1
    26    13    19 1
    27    13    38 1
    28    14    18 1
    29    14    22 1
    30    14    39 1
    31    15    23 1
    32    15    40 1
    33    16    20 1
    34    16    41 1
    35    17    19 1
    36    17    42 1
    37    17    43 1
    38    18    44 1
    39    18    45 1
    40    19    46 1
    41    19    47 1
    42    20    23 1
    43    20    48 1
    44    20    49 1
    45    21    50 1
    46    21    51 1
    47    21    52 1
    48    22    53 1
    49    22    54 1
    50    23    24 1
    51    23    55 1
    52    24    56 1
    53    24    57 1
    54    24    58 1
    55    25    26 1
    56    25    27 2
    57    26    28 1
    58    26    29 1
    59    26    59 1
    60    28    30 1
    61    28    60 1
    62    28    61 1
    63    29    62 1
    64    29    63 1
    65    29    64 1
    66    30    65 1
    67    30    66 1
    68    30    67 1
@<TRIPOS>SUBSTRUCTURE
     1 LVA         1 TEMP              0 ****  ****    0 ROOT
