@<TRIPOS>MOLECULE
molecule
   73    75     1     0     0
SMALL
bcc


@<TRIPOS>ATOM
      1 O3           0.0000     0.0000     0.0000 o          1 LVJ      -0.604100
      2 C22          1.2130     0.0000     0.0000 c          1 LVJ       0.666100
      3 C23          1.9670     0.0000     1.3060 c3         1 LVJ      -0.141000
      4 C26          0.9730    -0.0000     2.4680 c3         1 LVJ      -0.077767
      5 C25          2.8470    -1.2490     1.3860 c3         1 LVJ      -0.077767
      6 C24          2.8460     1.2500     1.3860 c3         1 LVJ      -0.077767
      7 N4           1.8870    -0.0050    -1.1680 ns         1 LVJ      -0.584900
      8 C21          1.1540    -0.0110    -2.4360 c3         1 LVJ       0.159300
      9 C19          2.1330    -0.0160    -3.5820 ca         1 LVJ      -0.107300
     10 C18          2.4240     1.1610    -4.2470 ca         1 LVJ      -0.091000
     11 C17          3.3210     1.1610    -5.2990 ca         1 LVJ      -0.122000
     12 C16          3.9320    -0.0160    -5.6890 ca         1 LVJ       0.050400
     13 Cl           5.0590    -0.0150    -7.0100 cl         1 LVJ      -0.081400
     14 C20          2.7440    -1.1960    -3.9620 ca         1 LVJ       0.052400
     15 Cl1          2.3840    -2.6710    -3.1200 cl         1 LVJ      -0.075400
     16 C15          3.6430    -1.2010    -5.0220 ca         1 LVJ       0.167600
     17 N3           4.2590    -2.3940    -5.4140 nu         1 LVJ      -0.750600
     18 C1           3.6620    -3.2000    -6.3610 cc         1 LVJ       0.670700
     19 N1           2.5740    -2.9010    -7.0240 nd         1 LVJ      -0.640100
     20 C2           2.2650    -3.9180    -7.8750 ca         1 LVJ       0.078400
     21 C11          3.2510    -4.9090    -7.7100 ca         1 LVJ      -0.029200
     22 N            4.1230    -4.4270    -6.7520 na         1 LVJ      -0.184300
     23 C            5.3180    -5.1060    -6.2450 c3         1 LVJ       0.039600
     24 C10          3.1990    -6.0790    -8.4540 ca         1 LVJ      -0.245000
     25 C5           2.1770    -6.2740    -9.3630 ca         1 LVJ       0.205100
     26 O            2.1280    -7.4200   -10.0910 os         1 LVJ      -0.268900
     27 C6           3.1650    -8.3770    -9.8660 c3         1 LVJ       0.148400
     28 C7           2.9430    -9.5920   -10.7680 c3         1 LVJ       0.155800
     29 O1           1.6770   -10.1820   -10.4700 oh         1 LVJ      -0.583800
     30 C9           2.9680    -9.1490   -12.2330 c3         1 LVJ      -0.122100
     31 C8           4.0520   -10.6170   -10.5260 c3         1 LVJ      -0.122100
     32 C4           1.1880    -5.2910    -9.5360 ca         1 LVJ      -0.183600
     33 C3           1.2360    -4.1150    -8.7910 ca         1 LVJ      -0.021000
     34 C12          0.1000    -5.5040   -10.5070 c          1 LVJ       0.685700
     35 O2           0.0580    -6.5320   -11.1580 o          1 LVJ      -0.579100
     36 N2          -0.8490    -4.5620   -10.6730 ns         1 LVJ      -0.594900
     37 C13         -1.9300    -4.7740   -11.6380 c3         1 LVJ       0.073000
     38 C14         -2.8650    -3.5620   -11.6310 c3         1 LVJ       0.599900
     39 F           -2.1450    -2.4160   -11.9840 f          1 LVJ      -0.223633
     40 F1          -3.8980    -3.7640   -12.5520 f          1 LVJ      -0.223633
     41 F2          -3.4070    -3.3980   -10.3520 f          1 LVJ      -0.223633
     42 H4           2.8870     0.0390    -1.1680 hn         1 LVJ       0.316500
     43 H261         0.3540    -0.8870     2.4130 hc         1 LVJ       0.041367
     44 H262         0.3480     0.8820     2.4090 hc         1 LVJ       0.041367
     45 H263         1.5150     0.0040     3.4060 hc         1 LVJ       0.041367
     46 H251         3.6820    -1.1470     0.7030 hc         1 LVJ       0.041367
     47 H252         3.2200    -1.3640     2.3970 hc         1 LVJ       0.041367
     48 H253         2.2630    -2.1200     1.1160 hc         1 LVJ       0.041367
     49 H241         2.2700     2.1170     1.0870 hc         1 LVJ       0.041367
     50 H242         3.1950     1.3810     2.4040 hc         1 LVJ       0.041367
     51 H243         3.6970     1.1360     0.7250 hc         1 LVJ       0.041367
     52 H211         0.5310     0.8730    -2.4970 h1         1 LVJ       0.068700
     53 H212         0.5310    -0.8960    -2.4890 h1         1 LVJ       0.068700
     54 H18          1.9470     2.0850    -3.9440 ha         1 LVJ       0.150000
     55 H17          3.5460     2.0850    -5.8180 ha         1 LVJ       0.154000
     56 H3           5.1410    -2.6540    -5.0200 hn         1 LVJ       0.460800
     57 HA           0.4740    -3.3560    -8.9240 ha         1 LVJ       0.143000
     58 H10          3.9760    -6.8260    -8.3440 ha         1 LVJ       0.135000
     59 HC1          5.2300    -6.1710    -6.4220 h1         1 LVJ       0.051367
     60 HC2          6.1940    -4.7260    -6.7580 h1         1 LVJ       0.051367
     61 HC3          5.4140    -4.9230    -5.1820 h1         1 LVJ       0.051367
     62 H61C         3.1480    -8.6900    -8.8290 h1         1 LVJ       0.039700
     63 H62C         4.1250    -7.9300   -10.0920 h1         1 LVJ       0.039700
     64 H1           1.6240   -11.0340   -10.8720 ho         1 LVJ       0.401000
     65 H91C         3.7430    -8.4060   -12.3730 hc         1 LVJ       0.046533
     66 H92C         2.0070    -8.7240   -12.4980 hc         1 LVJ       0.046533
     67 H93C         3.1700   -10.0050   -12.8660 hc         1 LVJ       0.046533
     68 H81C         4.0150   -10.9530    -9.4970 hc         1 LVJ       0.046533
     69 H82C         5.0150   -10.1610   -10.7230 hc         1 LVJ       0.046533
     70 H83C         3.9120   -11.4640   -11.1880 hc         1 LVJ       0.046533
     71 H2          -0.8070    -3.7110   -10.1490 hn         1 LVJ       0.326500
     72 H131        -2.4880    -5.6620   -11.3660 h1         1 LVJ       0.087200
     73 H132        -1.5100    -4.9010   -12.6290 h1         1 LVJ       0.087200
@<TRIPOS>BOND
     1     1     2 2
     2     2     3 1
     3     2     7 1
     4     3     4 1
     5     3     5 1
     6     3     6 1
     7     7     8 1
     8     8     9 1
     9     9    10 ar
    10     9    14 ar
    11    10    11 ar
    12    11    12 ar
    13    12    13 1
    14    12    16 ar
    15    14    15 1
    16    14    16 ar
    17    16    17 1
    18    17    18 1
    19    18    19 2
    20    18    22 1
    21    19    20 1
    22    20    21 ar
    23    20    33 ar
    24    21    22 1
    25    21    24 ar
    26    22    23 1
    27    24    25 ar
    28    25    26 1
    29    25    32 ar
    30    26    27 1
    31    27    28 1
    32    28    29 1
    33    28    30 1
    34    28    31 1
    35    32    33 ar
    36    32    34 1
    37    34    35 2
    38    34    36 1
    39    36    37 1
    40    38    39 1
    41    38    40 1
    42    38    41 1
    43     7    42 1
    44     4    43 1
    45     4    44 1
    46     4    45 1
    47     5    46 1
    48     5    47 1
    49     5    48 1
    50     6    49 1
    51     6    50 1
    52     6    51 1
    53     8    52 1
    54     8    53 1
    55    10    54 1
    56    11    55 1
    57    17    56 1
    58    33    57 1
    59    24    58 1
    60    23    59 1
    61    23    60 1
    62    23    61 1
    63    27    62 1
    64    27    63 1
    65    29    64 1
    66    30    65 1
    67    30    66 1
    68    30    67 1
    69    31    68 1
    70    31    69 1
    71    31    70 1
    72    36    71 1
    73    37    72 1
    74    37    73 1
    75    37    38 1
@<TRIPOS>SUBSTRUCTURE
     1 LVJ         1 TEMP              0 ****  ****    0 ROOT
