@<TRIPOS>MOLECULE
LVO
   71    64     1     0     0
SMALL
bcc


@<TRIPOS>ATOM
      1 CAA       159.7240  -73.3430  -42.0950 c1        1 LVO     -0.068000
      2 CAB       160.8850  -73.0860  -41.5690 c2        1 LVO     -0.156000
      3 CAC       162.1650  -73.6150  -42.1580 c3        1 LVO     -0.010000
      4 CAD       158.6100  -76.6090  -37.6630 c3        1 LVO     -0.084000
      5 CAE       157.6200  -74.1000  -41.5790 c2        1 LVO     -0.442000
      6 OAF       158.4570  -73.3010  -42.2780 os        1 LVO      0.174000
      7 CAG       162.9590  -72.6180  -37.7730 c1        1 LVO      0.439000
      8 OAH       163.3120  -73.0270  -36.7170 o         1 LVO     -0.220000
      9 OAI       162.5980  -72.1970  -38.8300 o         1 LVO     -0.220000
     10 CAJ       156.5030  -74.7130  -42.3400 c3        1 LVO      0.090000
     11 CAK       155.3700  -73.7160  -42.4730 c2        1 LVO      0.191000
     12 CAL       154.5680  -73.6600  -43.5750 c2        1 LVO     -0.217000
     13 OAM       153.6940  -72.5670  -43.7420 os        1 LVO      0.013000
     14 CAN       152.5480  -72.5350  -43.1580 c1        1 LVO      0.469000
     15 OAV       151.5060  -72.3160  -42.6960 o         1 LVO      0.054000
     16 OAW       156.8520  -75.1200  -43.6600 os        1 LVO     -0.278000
     17 CAX       157.4720  -76.4010  -43.7000 c3        1 LVO     -0.080000
     18 OAY       155.1090  -72.8910  -41.4360 oh        1 LVO     -0.254000
     19 NAZ       163.1730  -73.9910  -41.2030 n3        1 LVO     -0.308000
     20 CBA       162.8700  -75.0540  -40.2770 c2        1 LVO      0.165000
     21 NBB       163.6630  -75.0360  -39.0760 n3        1 LVO     -0.335000
     22 NBC       161.9690  -75.9900  -40.4330 n2        1 LVO     -0.384000
     23 CBE       159.5580  -77.3540  -41.2550 c1        1 LVO      0.016000
     24 OBF       157.5170  -76.8710  -40.2490 o         1 LVO     -0.441000
     25 NBG       159.3290  -77.0240  -38.8270 n         1 LVO     -0.359000
     26 HAB       160.9770  -72.4340  -40.6740 ha        1 LVO      0.187000
     27 HAC       159.0000  -75.6230  -37.2910 h1        1 LVO      0.090333
     28 HAD       158.7390  -77.3770  -36.8520 h1        1 LVO      0.090333
     29 HAE       157.9730  -74.5940  -40.6660 h4        1 LVO      0.175000
     30 HAJ       154.4360  -72.2150  -39.1500 ha        1 LVO      0.001750
     31 HAK       156.1120  -75.5930  -41.7350 h1        1 LVO      0.164000
     32 H1AL      154.5900  -74.3020  -44.4660 h4        1 LVO      0.241000
     33 H2AL      154.6670  -72.8160  -38.9380 ha        1 LVO      0.001750
     34 C15      -359.8570  168.7510  102.8870 c3        1 LVO     -0.222000
     35 H1AX      158.3310  -76.4490  -42.9810 h1        1 LVO      0.094333
     36 H2AX      157.8280  -76.4930  -44.7570 h1        1 LVO      0.094333
     37 H3AX      156.7220  -77.1940  -43.4590 h1        1 LVO      0.094333
     38 HOAY      155.8410  -72.9540  -40.7770 ho        1 LVO      0.301000
     39 HNAZ      162.6080  -72.7990  -42.8040 h1        1 LVO      0.125500
     40 H1BB      163.5330  -75.8590  -38.5200 hn        1 LVO      0.197000
     41 H2BB      161.9470  -74.4960  -42.8290 h1        1 LVO      0.125500
     42 HBC       161.3770  -75.9060  -41.2330 hn        1 LVO      0.167000
     43 H1BE      156.0430  -75.2880  -39.2760 ha        1 LVO      0.001750
     44 H2BE      155.7490  -74.7470  -39.5630 ha        1 LVO      0.001750
     45 H3BE      159.7680  -78.3900  -41.5450 ha        1 LVO      0.107000
     46 HNBG      157.5160  -76.5040  -37.8970 h1        1 LVO      0.090333
     47 C16      -360.0840  167.7990  104.0310 c3        1 LVO     -0.164000
     48 C17      -361.0760  168.3290  105.0500 c3        1 LVO     -0.168000
     49 C18      -362.4780  164.8120  103.2930 c3        1 LVO     -0.275000
     50 C19      -363.4820  168.7540  105.5950 c3        1 LVO     -0.528000
     51 C20      -362.4880  168.2460  104.5130 c3        1 LVO     -0.119000
     52 C21      -364.8100  168.7270  105.1850 c1        1 LVO      0.722000
     53 H23      -359.0770  168.3390  102.1990 hc        1 LVO      0.086000
     54 H24      -360.7920  168.9060  102.2960 hc        1 LVO      0.086000
     55 H25      -360.4390  166.8070  103.6400 hc        1 LVO      0.105500
     56 H26      -359.5030  169.7440  103.2580 hc        1 LVO      0.086000
     57 H27      -359.1090  167.6170  104.5600 hc        1 LVO      0.105500
     58 H28      -360.8220  169.3920  105.3050 hc        1 LVO      0.099500
     59 H29      -362.1560  165.5350  102.5110 hc        1 LVO      0.069500
     60 H30      -362.4040  163.7790  102.8870 hc        1 LVO      0.069500
     61 H31      -361.8170  164.9020  104.1830 hc        1 LVO      0.069500
     62 H32      -360.9950  167.7230  105.9920 hc        1 LVO      0.099500
     63 H33      -363.5320  165.0150  103.5830 hc        1 LVO      0.069500
     64 H34      -362.7410  167.1820  104.2520 hc        1 LVO      0.133500
     65 H35      -363.3120  168.1240  106.5410 hc        1 LVO      0.271000
     66 H36      -363.1480  169.8100  105.8990 hc        1 LVO      0.271000
     67 H37      -362.5920  168.8830  103.5960 hc        1 LVO      0.133500
     68 CBD       158.7480  -77.1030  -40.0670 c2        1 LVO      0.238000
     69 HAZ2      163.5960  -73.1930  -40.7660 hn        1 LVO      0.211000
     70 HBB3      164.6350  -74.8850  -39.2640 hn        1 LVO      0.197000
     71 HBG2      160.3150  -77.1280  -38.7430 hn        1 LVO      0.250000
@<TRIPOS>BOND
     1    1    2 1   
     2    1    6 1   
     3    2    3 1   
     4    2   26 1   
     5    3   19 1   
     6    3   39 1   
     7    3   41 1   
     8    4   25 1   
     9    4   27 1   
    10    4   28 1   
    11    4   46 1   
    12    5    6 1   
    13    5   10 1   
    14    5   29 1   
    15    7    8 1   
    16    7    9 1   
    17   10   11 1   
    18   10   16 1   
    19   10   31 1   
    20   11   12 1   
    21   11   18 1   
    22   12   13 1   
    23   12   32 1   
    24   13   14 1   
    25   14   15 1   
    26   16   17 1   
    27   17   35 1   
    28   17   36 1   
    29   17   37 1   
    30   18   38 1   
    31   19   20 1   
    32   19   69 1   
    33   20   21 1   
    34   20   22 1   
    35   21   40 1   
    36   21   70 1   
    37   22   42 1   
    38   23   45 1   
    39   23   68 1   
    40   24   68 1   
    41   25   68 1   
    42   25   71 1   
    43   30   33 1   
    44   34   47 1   
    45   34   53 1   
    46   34   54 1   
    47   34   56 1   
    48   43   44 1   
    49   47   48 1   
    50   47   55 1   
    51   47   57 1   
    52   48   51 1   
    53   48   58 1   
    54   48   62 1   
    55   49   59 1   
    56   49   60 1   
    57   49   61 1   
    58   49   63 1   
    59   50   51 1   
    60   50   52 1   
    61   50   65 1   
    62   50   66 1   
    63   51   64 1   
    64   51   67 1   
@<TRIPOS>SUBSTRUCTURE
     1 LVO         1 TEMP              0 ****  ****    0 ROOT
