@<TRIPOS>MOLECULE
molecule
   69    69     1     0     0
SMALL
bcc


@<TRIPOS>ATOM
      1 CAA          0.0000     0.0000     0.0000 ce         1 LVO       0.136900
      2 CAB          1.3240     0.0000     0.0000 c2         1 LVO      -0.408200
      3 CAC          2.1290     0.0000     1.2720 c3         1 LVO       0.088700
      4 CAD          1.2360    -0.4350     2.4390 c3         1 LVO       0.065700
      5 CAE         -0.0810     0.3480     2.3560 c3         1 LVO       0.126100
      6 OAF         -0.7390    -0.0070     1.1360 os         1 LVO      -0.251900
      7 CAG         -0.7030     0.0140    -1.2940 c          1 LVO       0.879800
      8 OAH         -2.0500     0.0150    -1.3300 o          1 LVO      -0.773300
      9 OAI         -0.0680     0.0270    -2.3310 o          1 LVO      -0.773300
     10 CAJ         -0.9710    -0.0130     3.5460 c3         1 LVO       0.068100
     11 CAK         -2.3300     0.6740     3.3930 c3         1 LVO       0.095100
     12 CAL         -3.1740     0.4190     4.6440 c3         1 LVO       0.120400
     13 OAM         -4.5110     0.9470     4.4410 os         1 LVO      -0.409900
     14 CAN         -5.3830     0.8030     5.4520 c          1 LVO       0.629100
     15 OAV         -5.0390     0.2550     6.4720 o          1 LVO      -0.558000
     16 OAW         -1.1550    -1.4300     3.5910 os         1 LVO      -0.272600
     17 CAX         -0.9910    -1.9960     4.8920 c3         1 LVO      -0.354300
     18 OAY         -2.1360     2.0800     3.2270 oh         1 LVO      -0.521800
     19 NAZ          3.2510    -0.9320     1.1410 nu         1 LVO      -0.996200
     20 CBA          4.4240    -0.5180     0.5540 c2         1 LVO       0.709100
     21 NBB          5.4770    -1.3940     0.4310 nz         1 LVO      -0.778600
     22 NBC          4.5370     0.7040     0.1160 n2         1 LVO      -0.869100
     23 CBE          3.4760    -0.7210     5.5310 c3         1 LVO      -0.167100
     24 OBF          2.9980    -2.0720     3.6560 o          1 LVO      -0.588100
     25 NBG          1.9060    -0.1420     3.7090 ns         1 LVO      -0.603900
     26 HAB          1.8490     0.0000    -0.9480 ha         1 LVO       0.198000
     27 HAC          2.5120     1.0020     1.4240 h1         1 LVO       0.121700
     28 HAD          1.0330    -1.4970     2.3640 h1         1 LVO       0.139700
     29 HAE          0.1280     1.4110     2.3590 h1         1 LVO       0.079700
     30 HAJ         -0.5000     0.3200     4.4630 h1         1 LVO       0.041700
     31 HAK         -2.8410     0.2790     2.5230 h1         1 LVO       0.142700
     32 H1AL        -3.2250    -0.6440     4.8470 h1         1 LVO       0.061200
     33 H2AL        -2.7200     0.9360     5.4800 h1         1 LVO       0.061200
     34 C15         -6.7890     1.3270     5.3140 c3         1 LVO      -0.125400
     35 H1AX        -0.3130    -1.4300     4.2660 h1         1 LVO       0.153700
     36 H2AX        -0.6140    -2.9630     4.5830 h1         1 LVO       0.153700
     37 H3AX        -0.6870    -1.5280     5.8210 h1         1 LVO       0.153700
     38 HOAY        -1.4920     1.9100     3.8940 ho         1 LVO       0.366000
     39 HNAZ         2.3150    -0.7160     1.4200 hn         1 LVO       0.675800
     40 H1BB         5.3780    -1.8920    -0.4320 hn         1 LVO       0.461800
     41 H2BB         6.3480    -0.9010     0.4370 hn         1 LVO       0.461800
     42 HBC          5.3840     1.0060    -0.3240 hn         1 LVO       0.407400
     43 H1BE         3.5620    -1.6270     6.1190 hc         1 LVO       0.067700
     44 H2BE         2.8680    -0.0060     6.0730 hc         1 LVO       0.067700
     45 H3BE         4.4630    -0.3100     5.3560 hc         1 LVO       0.067700
     46 HNBG         1.7670     0.7470     4.1460 hn         1 LVO       0.327500
     47 C16         -7.5690     1.0370     6.5980 c3         1 LVO      -0.067400
     48 C17         -8.9970     1.5690     6.4580 c3         1 LVO      -0.082400
     49 C18         -9.7770     1.2780     7.7420 c3         1 LVO      -0.081400
     50 C19        -11.2050     1.8090     7.6020 c3         1 LVO      -0.082400
     51 C20        -11.9850     1.5200     8.8870 c3         1 LVO      -0.084400
     52 C21        -13.4130     2.0500     8.7460 c3         1 LVO      -0.093100
     53 H23         -6.7300     2.3840     5.0860 hc         1 LVO       0.074700
     54 H24         -7.2370     0.8340     4.4600 hc         1 LVO       0.074700
     55 H25         -7.0670     1.5180     7.4290 hc         1 LVO       0.058200
     56 H26         -7.6010    -0.0340     6.7640 hc         1 LVO       0.058200
     57 H27         -8.9710     2.6370     6.2810 hc         1 LVO       0.042700
     58 H28         -9.4830     1.0740     5.6250 hc         1 LVO       0.042700
     59 H29         -9.2950     1.7310     8.6000 hc         1 LVO       0.043200
     60 H30         -9.8210     0.2050     7.8830 hc         1 LVO       0.043200
     61 H31        -11.1750     2.8790     7.4320 hc         1 LVO       0.041200
     62 H32        -11.6920     1.3270     6.7630 hc         1 LVO       0.041200
     63 H33        -12.0310     0.4440     9.0030 hc         1 LVO       0.040200
     64 H34        -11.4920     1.9600     9.7450 hc         1 LVO       0.040200
     65 H35        -13.4800     3.0280     9.2080 hc         1 LVO       0.033033
     66 H36        -14.1020     1.3630     9.2220 hc         1 LVO       0.033033
     67 H37        -13.6660     2.1380     7.6970 hc         1 LVO       0.033033
     68 CBD          2.7860    -1.0220     4.2250 c          1 LVO       0.652100
     69 HBB3         5.4510    -2.0420     1.1930 hn         1 LVO       0.461800
@<TRIPOS>BOND
     1     1     2 2
     2     1     6 1
     3     2     3 1
     4     2    26 1
     5     3    19 1
     6     3     4 1
     7     3    27 1
     8     4    25 1
     9     4    28 1
    10     5     4 1
    11     5    10 1
    12     5    29 1
    13     6     5 1
    14     7     1 1
    15     8     7 1
    16     9     7 1
    17    10    16 1
    18    10    30 1
    19    11    10 1
    20    11    12 1
    21    11    31 1
    22    12    32 1
    23    12    33 1
    24    13    12 1
    25    14    13 1
    26    14    15 2
    27    14    34 1
    28    16    17 1
    29    17    35 1
    30    17    36 1
    31    17    37 1
    32    18    11 1
    33    18    38 1
    34    19    20 1
    35    19    39 1
    36    20    21 1
    37    21    40 1
    38    21    41 1
    39    22    20 2
    40    22    42 1
    41    68    24 2
    42    68    23 1
    43    23    43 1
    44    23    44 1
    45    23    45 1
    46    25    68 1
    47    25    46 1
    48    34    47 1
    49    47    48 1
    50    48    49 1
    51    49    50 1
    52    50    51 1
    53    51    52 1
    54    34    53 1
    55    34    54 1
    56    47    55 1
    57    47    56 1
    58    48    57 1
    59    48    58 1
    60    49    59 1
    61    49    60 1
    62    50    61 1
    63    50    62 1
    64    51    63 1
    65    51    64 1
    66    52    65 1
    67    52    66 1
    68    52    67 1
    69    69    21 1
@<TRIPOS>SUBSTRUCTURE
     1 LVO         1 TEMP              0 ****  ****    0 ROOT
