@<TRIPOS>MOLECULE
LVY
   32    34     1     0     0
SMALL
bcc


@<TRIPOS>ATOM
      1 C1           0.0000     0.0000     0.0000 c3         1 LVY      -0.007300
      2 C2           1.5330     0.0000     0.0000 c3         1 LVY      -0.049400
      3 C3           2.0210     0.0000     1.4520 c3         1 LVY      -0.123400
      4 C4           1.4170    -1.1730     2.1780 c          1 LVY       0.605500
      5 N5           0.2240    -1.6730     1.8220 ns         1 LVY      -0.154500
      6 C6          -0.4940    -1.1730     0.8040 c          1 LVY       0.590500
      7 C7          -1.3560     3.3760     0.8610 ca         1 LVY      -0.118600
      8 C8          -1.1190     2.9260     2.1610 ca         1 LVY      -0.194300
      9 C9          -0.5500     1.5360     2.0360 c3         1 LVY       0.105300
     10 N10         -0.4890     1.2440     0.6000 n          1 LVY      -0.160800
     11 C11         -0.9550     2.3090    -0.0770 c          1 LVY       0.662100
     12 C12         -2.1870     5.4500     1.7460 ca         1 LVY      -0.060000
     13 C13         -1.9420     5.0060     3.0310 ca         1 LVY      -0.160000
     14 C14         -1.4090     3.7380     3.2420 ca         1 LVY       0.081600
     15 C15         -1.8940     4.6490     0.6610 ca         1 LVY      -0.075000
     16 O16         -1.0350     2.3820    -1.2870 o          1 LVY      -0.657500
     17 N17         -1.1710     3.2850     4.5420 nv         1 LVY      -0.446200
     18 O18         -1.5620    -1.6760     0.5280 o          1 LVY      -0.614500
     19 O19          2.0210    -1.6760     3.1000 o          1 LVY      -0.635500
     20 H1          -0.3600    -0.0830    -1.0180 h1         1 LVY       0.090700
     21 H21C         1.8950    -0.8870    -0.5050 hc         1 LVY       0.040200
     22 H22C         1.8950     0.8870    -0.5050 hc         1 LVY       0.040200
     23 H31C         1.7160     0.9200     1.9360 hc         1 LVY       0.058700
     24 H32C         3.1010    -0.0830     1.4690 hc         1 LVY       0.058700
     25 H5          -0.1450    -2.4480     2.3360 hn         1 LVY       0.198500
     26 H15         -2.0890     5.0030    -0.3430 ha         1 LVY       0.119000
     27 H91         -1.1990     0.8240     2.5310 h1         1 LVY       0.027200
     28 H92          0.4440     1.5020     2.4640 h1         1 LVY       0.027200
     29 H12         -2.6020     6.4380     1.5880 ha         1 LVY       0.105000
     30 H13         -2.1750     5.6420     3.8770 ha         1 LVY       0.112000
     31 H171        -0.8480     2.3500     4.6940 hn         1 LVY       0.267800
     32 H172        -1.3460     3.8880     5.3220 hn         1 LVY       0.267800
@<TRIPOS>BOND
     1     1     2 1   
     2     1     6 1   
     3     1    10 1   
     4     1    20 1   
     5     2     3 1   
     6     2    21 1   
     7     2    22 1   
     8     3     4 1   
     9     3    23 1   
    10     3    24 1   
    11     4     5 1   
    12     4    19 2   
    13     5     6 1   
    14     5    25 1   
    15     6    18 2   
    16     7     8 ar  
    17     7    11 1   
    18     7    15 ar  
    19     8     9 1   
    20     8    14 ar  
    21     9    10 1   
    22     9    27 1   
    23     9    28 1   
    24    10    11 1   
    25    11    16 2   
    26    12    13 ar  
    27    12    15 ar  
    28    12    29 1   
    29    13    14 ar  
    30    13    30 1   
    31    14    17 1   
    32    15    26 1   
    33    17    31 1   
    34    17    32 1   
@<TRIPOS>SUBSTRUCTURE
     1 LVY         1 TEMP              0 ****  ****    0 ROOT
