@<TRIPOS>MOLECULE
molecule
   32    34     1     0     0
SMALL
bcc


@<TRIPOS>ATOM
      1 C1           0.0000     0.0000     0.0000 c3         1 LVY       0.076700
      2 C2           1.5330     0.0000     0.0000 c3         1 LVY      -0.109400
      3 C3           2.0210     0.0000     1.4520 c3         1 LVY      -0.168400
      4 C4           1.4170    -1.1730     2.1780 c          1 LVY       0.693500
      5 N5           0.2240    -1.6730     1.8220 ns         1 LVY      -0.575500
      6 C6          -0.4940    -1.1730     0.8040 c          1 LVY       0.682500
      7 C7          -1.3560     3.3760     0.8610 ca         1 LVY      -0.110600
      8 C8          -1.1190     2.9260     2.1610 ca         1 LVY      -0.182300
      9 C9          -0.5500     1.5360     2.0360 c3         1 LVY       0.143300
     10 N10         -0.4890     1.2440     0.6000 n          1 LVY      -0.491800
     11 C11         -0.9550     2.3090    -0.0770 c          1 LVY       0.723100
     12 C12         -2.1870     5.4500     1.7460 ca         1 LVY      -0.089000
     13 C13         -1.9420     5.0060     3.0310 ca         1 LVY      -0.182000
     14 C14         -1.4090     3.7380     3.2420 ca         1 LVY       0.224600
     15 C15         -1.8940     4.6490     0.6610 ca         1 LVY      -0.109000
     16 O16         -1.0350     2.3820    -1.2870 o          1 LVY      -0.616500
     17 N17         -1.1710     3.2850     4.5420 nv         1 LVY      -0.921200
     18 O18         -1.5620    -1.6760     0.5280 o          1 LVY      -0.582500
     19 O19          2.0210    -1.6760     3.1000 o          1 LVY      -0.603500
     20 H1          -0.3600    -0.0830    -1.0180 h1         1 LVY       0.124700
     21 H21C         1.8950    -0.8870    -0.5050 hc         1 LVY       0.072200
     22 H22C         1.8950     0.8870    -0.5050 hc         1 LVY       0.072200
     23 H31C         1.7160     0.9200     1.9360 hc         1 LVY       0.088700
     24 H32C         3.1010    -0.0830     1.4690 hc         1 LVY       0.088700
     25 H5          -0.1450    -2.4480     2.3360 hn         1 LVY       0.347500
     26 H15         -2.0890     5.0030    -0.3430 ha         1 LVY       0.149000
     27 H91         -1.1990     0.8240     2.5310 h1         1 LVY       0.057200
     28 H92          0.4440     1.5020     2.4640 h1         1 LVY       0.057200
     29 H12         -2.6020     6.4380     1.5880 ha         1 LVY       0.138000
     30 H13         -2.1750     5.6420     3.8770 ha         1 LVY       0.137000
     31 H171        -0.8480     2.3500     4.6940 hn         1 LVY       0.432800
     32 H172        -1.3460     3.8880     5.3220 hn         1 LVY       0.432800
@<TRIPOS>BOND
     1     1     2 1
     2     1     6 1
     3     1    10 1
     4     2     3 1
     5     3     4 1
     6     4     5 1
     7     4    19 2
     8     5     6 1
     9     6    18 2
    10     7     8 ar
    11     7    11 1
    12     7    15 ar
    13     8     9 1
    14     8    14 ar
    15     9    10 1
    16    10    11 1
    17    11    16 2
    18    12    13 ar
    19    12    15 ar
    20    13    14 ar
    21    14    17 1
    22     1    20 1
    23     2    21 1
    24     2    22 1
    25     3    23 1
    26     3    24 1
    27     5    25 1
    28    15    26 1
    29     9    27 1
    30     9    28 1
    31    12    29 1
    32    13    30 1
    33    17    31 1
    34    17    32 1
@<TRIPOS>SUBSTRUCTURE
     1 LVY         1 TEMP              0 ****  ****    0 ROOT
