@<TRIPOS>MOLECULE
molecule
   55    60     1     0     0
SMALL
bcc


@<TRIPOS>ATOM
      1 N1           0.0000     0.0000     0.0000 na         1 LW4      -0.160400
      2 C4           0.6110     0.0010     2.1650 ca         1 LW4      -0.054800
      3 C5           1.8100     0.0000     1.3050 cc         1 LW4      -0.143200
      4 C6           1.3480     0.0000     0.0000 cd         1 LW4      -0.058100
      5 C8           3.2060     0.0010     1.7420 cc         1 LW4       0.008800
      6 C10          5.3670     0.5670     2.2570 c          1 LW4       0.707700
      7 C13          3.9690    -1.1440     2.3030 c          1 LW4       0.689700
      8 C20          4.2250     4.3240    -0.3060 ca         1 LW4       0.472600
      9 C21          4.5460     3.0040     0.0960 ca         1 LW4      -0.289600
     10 C22          5.5280     2.2880    -0.5920 ca         1 LW4      -0.078000
     11 C24          6.1690     2.8720    -1.6470 ca         1 LW4      -0.143000
     12 C26          5.8570     4.1700    -2.0440 ca         1 LW4      -0.097000
     13 C28          4.9020     4.8940    -1.3920 ca         1 LW4      -0.184300
     14 C3          -0.4880     0.0010     1.2920 ca         1 LW4      -0.046200
     15 C9           4.0960     1.0740     1.7130 cd         1 LW4      -0.243000
     16 N11          5.2180    -0.7290     2.5780 ns         1 LW4      -0.591500
     17 O14          3.5380    -2.2650     2.4850 o          1 LW4      -0.548500
     18 O15          6.3870     1.2140     2.3900 o          1 LW4      -0.563500
     19 C16          3.8210     2.4380     1.2350 ca         1 LW4       0.585100
     20 N17          2.9030     3.2030     1.8220 nb         1 LW4      -0.724000
     21 C18          2.6540     4.4340     1.3910 ca         1 LW4       0.877900
     22 N19          3.2820     4.9910     0.3750 nb         1 LW4      -0.779000
     23 N30          1.6880     5.1750     2.0480 nh         1 LW4      -0.684300
     24 C31          1.5430     6.5060     1.4430 c3         1 LW4       0.176800
     25 C34          0.4120     7.2620     2.1460 c3         1 LW4       0.158300
     26 N37          0.7140     7.3680     3.5790 n3         1 LW4      -0.735600
     27 C38          0.8590     6.0370     4.1850 c3         1 LW4       0.158300
     28 C41          1.9900     5.2810     3.4830 c3         1 LW4       0.176800
     29 C44         -0.3120     8.1540     4.2770 c3         1 LW4       0.153100
     30 C48          0.4110     0.0030     3.5420 ca         1 LW4      -0.075000
     31 C50         -0.8730     0.0040     4.0440 ca         1 LW4      -0.146000
     32 C52         -1.9600     0.0030     3.1850 ca         1 LW4      -0.109000
     33 C54         -1.7750     0.0020     1.8180 ca         1 LW4      -0.137000
     34 HN1         -0.5690    -0.0000    -0.8230 hn         1 LW4       0.300700
     35 H6           1.9740    -0.0010    -0.8850 h4         1 LW4       0.172000
     36 H24          6.9310     2.3190    -2.1820 ha         1 LW4       0.134000
     37 H26          6.3790     4.6110    -2.8840 ha         1 LW4       0.135000
     38 H28          4.6700     5.9020    -1.7120 ha         1 LW4       0.151000
     39 HN11         5.9370    -1.3060     2.9670 hn         1 LW4       0.359500
     40 H31          1.3050     6.3990     0.3910 h1         1 LW4       0.061450
     41 H31A         2.4690     7.0560     1.5560 h1         1 LW4       0.061450
     42 H34         -0.5180     6.7240     2.0120 h1         1 LW4       0.043700
     43 H34A         0.3260     8.2550     1.7220 h1         1 LW4       0.043700
     44 H38         -0.0670     5.4870     4.0710 h1         1 LW4       0.043700
     45 H38A         1.0960     6.1440     5.2370 h1         1 LW4       0.043700
     46 H41          2.0770     4.2880     3.9070 h1         1 LW4       0.061450
     47 H41A         2.9200     5.8190     3.6160 h1         1 LW4       0.061450
     48 H44         -0.3760     9.1400     3.8340 h1         1 LW4       0.032367
     49 H44A        -0.0480     8.2450     5.3240 h1         1 LW4       0.032367
     50 H44B        -1.2710     7.6560     4.1890 h1         1 LW4       0.032367
     51 H48          1.2590     0.0040     4.2160 ha         1 LW4       0.134000
     52 H50         -1.0320     0.0050     5.1160 ha         1 LW4       0.131000
     53 H52         -2.9650     0.0040     3.5900 ha         1 LW4       0.131000
     54 H54         -2.6320     0.0020     1.1550 ha         1 LW4       0.126000
     55 H22          5.7790     1.2780    -0.2920 ha         1 LW4       0.134000
@<TRIPOS>BOND
     1     1     4 1
     2     1    14 1
     3     2     3 1
     4     2    14 ar
     5     2    30 ar
     6     3     4 2
     7     3     5 1
     8     5     7 1
     9     5    15 2
    10     6    15 1
    11     6    16 1
    12     6    18 2
    13     7    16 1
    14     7    17 2
    15     8     9 ar
    16     8    13 ar
    17     8    22 ar
    18     9    10 ar
    19     9    19 ar
    20    10    11 ar
    21    11    12 ar
    22    12    13 ar
    23    14    33 ar
    24    15    19 1
    25    19    20 ar
    26    20    21 ar
    27    21    22 ar
    28    21    23 1
    29    23    24 1
    30    23    28 1
    31    24    25 1
    32    25    26 1
    33    26    27 1
    34    26    29 1
    35    27    28 1
    36    30    31 ar
    37    31    32 ar
    38    32    33 ar
    39     1    34 1
    40     4    35 1
    41    10    55 1
    42    11    36 1
    43    12    37 1
    44    13    38 1
    45    16    39 1
    46    24    40 1
    47    24    41 1
    48    25    42 1
    49    25    43 1
    50    27    44 1
    51    27    45 1
    52    28    46 1
    53    28    47 1
    54    29    48 1
    55    29    49 1
    56    29    50 1
    57    30    51 1
    58    31    52 1
    59    32    53 1
    60    33    54 1
@<TRIPOS>SUBSTRUCTURE
     1 LW4         1 TEMP              0 ****  ****    0 ROOT
