@<TRIPOS>MOLECULE
molecule
   20    22     1     0     0
SMALL
bcc


@<TRIPOS>ATOM
      1 C1           0.0000     0.0000     0.0000 c          1 LWG       0.723700
      2 N1           1.3480     0.0000     0.0000 ns         1 LWG      -0.458400
      3 O1          -0.6210    -0.0050    -1.0500 o          1 LWG      -0.628500
      4 S1          -2.4010     0.0000     1.6020 ss         1 LWG       0.060500
      5 Cl1         -4.7610    -0.0010     4.0430 cl         1 LWG      -0.089400
      6 C2           2.0280     0.0000     1.1750 cc         1 LWG       0.500800
      7 N2           1.4170     0.0000     2.3200 nd         1 LWG      -0.623300
      8 Cl2          1.3470    -0.0010     5.3400 cl         1 LWG      -0.070400
      9 C3           0.0590     0.0000     2.4080 cd         1 LWG       0.220400
     10 C4          -0.6830     0.0000     1.2480 cc         1 LWG      -0.193600
     11 C5          -2.1330    -0.0010     3.3370 ca         1 LWG      -0.009100
     12 C6          -3.0600    -0.0010     4.3910 ca         1 LWG       0.043400
     13 C7          -2.6290    -0.0020     5.6960 ca         1 LWG      -0.087000
     14 C8          -1.2710    -0.0020     5.9830 ca         1 LWG      -0.132000
     15 C9          -0.3480    -0.0010     4.9670 ca         1 LWG       0.085400
     16 C10         -0.7710    -0.0010     3.6200 ca         1 LWG      -0.061800
     17 HN1          1.8490     0.0000    -0.8670 hn         1 LWG       0.345500
     18 H2           3.1110     0.0000     1.1560 h5         1 LWG       0.064800
     19 H7          -3.3510    -0.0030     6.5030 ha         1 LWG       0.155000
     20 H8          -0.9380    -0.0030     7.0140 ha         1 LWG       0.155000
@<TRIPOS>BOND
     1     3     1 2
     2     1    10 1
     3     1     2 1
     4     2     6 1
     5     2    17 1
     6     4    10 1
     7     4    11 1
     8     5    12 1
     9     6     7 2
    10     6    18 1
    11     9     7 1
    12    15     8 1
    13    10     9 2
    14     9    16 1
    15    12    11 ar
    16    11    16 ar
    17    12    13 ar
    18    13    14 ar
    19    13    19 1
    20    14    15 ar
    21    14    20 1
    22    16    15 ar
@<TRIPOS>SUBSTRUCTURE
     1 LWG         1 TEMP              0 ****  ****    0 ROOT
