@<TRIPOS>MOLECULE
molecule
   48    52     1     0     0
SMALL
bcc


@<TRIPOS>ATOM
      1 C01          0.0000     0.0000     0.0000 ca         1 LWH      -0.087000
      2 C02          1.3640     0.0000     0.0000 ca         1 LWH      -0.149000
      3 C03          2.0790     0.0000     1.1940 ca         1 LWH      -0.095000
      4 C04          1.4370    -0.0010     2.3970 ca         1 LWH      -0.185300
      5 C05          0.0360    -0.0010     2.4330 ca         1 LWH       0.483600
      6 C06         -0.6900    -0.0000     1.2160 ca         1 LWH      -0.329600
      7 C07         -2.1060    -0.0010     1.2780 ca         1 LWH       0.748200
      8 C08         -1.9630    -0.0020     3.5900 cp         1 LWH       0.798500
      9 N09         -2.6840    -0.0010     2.4700 nb         1 LWH      -0.798000
     10 N10         -0.6430    -0.0000     3.5890 nb         1 LWH      -0.786000
     11 C11         -4.3260     0.0000     0.2090 c3         1 LWH       0.232500
     12 C12         -4.8530    -1.4420     0.3280 c3         1 LWH       0.127800
     13 C13         -5.2770    -0.7410    -1.8900 c3         1 LWH       0.135800
     14 C14         -4.9390     0.5490    -1.0990 c3         1 LWH      -0.099400
     15 N15         -2.8630     0.0000     0.1250 nu         1 LWH      -0.896900
     16 N16         -5.7390    -1.6770    -0.8330 n7         1 LWH      -0.799200
     17 C17         -2.6720    -0.0020     4.8900 cp         1 LWH      -0.167500
     18 C18         -4.0720    -0.0030     4.9270 ca         1 LWH       0.180100
     19 C19         -4.7350    -0.0040     6.1450 ca         1 LWH      -0.231000
     20 C20         -4.0190    -0.0040     7.3240 ca         1 LWH      -0.050000
     21 C21         -2.6240    -0.0030     7.2980 ca         1 LWH      -0.075000
     22 C22         -1.9500    -0.0090     6.0790 ca         1 LWH      -0.044000
     23 C23         -1.8590    -0.0030     8.5660 cc         1 LWH      -0.013300
     24 C24         -2.3850    -0.0020     9.8280 cd         1 LWH      -0.344300
     25 C25         -1.3230    -0.0030    10.7320 cd         1 LWH       0.334200
     26 N26         -0.5030    -0.0090     8.6910 na         1 LWH      -0.042600
     27 N27         -0.2010    -0.0020    10.0590 nc         1 LWH      -0.508800
     28 O28         -4.7800    -0.0020     3.7680 oh         1 LWH      -0.459100
     29 H01         -0.5450     0.0000    -0.9360 ha         1 LWH       0.121000
     30 H02          1.8980     0.0010    -0.9420 ha         1 LWH       0.131000
     31 H03          3.1620     0.0000     1.1670 ha         1 LWH       0.134000
     32 H04          2.0070    -0.0010     3.3190 ha         1 LWH       0.150000
     33 H15         -2.4140     0.0320    -0.7680 hn         1 LWH       0.447800
     34 H11         -4.6590     0.5910     1.0540 h1         1 LWH       0.095700
     35 H121        -4.0250    -2.1400     0.3070 h1         1 LWH       0.055700
     36 H122        -5.4150    -1.5540     1.2480 h1         1 LWH       0.055700
     37 H141        -4.2150     1.1480    -1.6370 hc         1 LWH       0.060200
     38 H142        -5.8390     1.1150    -0.8910 hc         1 LWH       0.060200
     39 H16         -5.6290    -2.6200    -1.1510 hn         1 LWH       0.349800
     40 H131        -6.0690    -0.5530    -2.6050 h1         1 LWH       0.039700
     41 H132        -4.3930    -1.1280    -2.3820 h1         1 LWH       0.039700
     42 H22         -0.8670    -0.0080     6.0580 ha         1 LWH       0.155000
     43 H19         -5.8180    -0.0050     6.1700 ha         1 LWH       0.138000
     44 H28         -5.6330     0.3710     3.9210 ho         1 LWH       0.412000
     45 H20         -4.5420    -0.0020     8.2730 ha         1 LWH       0.141000
     46 H24         -3.4390    -0.0020    10.0800 ha         1 LWH       0.152000
     47 H26          0.1590    -0.0100     7.9400 hn         1 LWH       0.332700
     48 H25         -1.4130    -0.0010    11.8120 h4         1 LWH       0.046100
@<TRIPOS>BOND
     1     1     2 ar
     2     1     6 ar
     3     2     3 ar
     4     3     4 ar
     5     4     5 ar
     6     5     6 ar
     7     5    10 ar
     8     6     7 ar
     9     7     9 ar
    10     7    15 1
    11     8     9 ar
    12     8    10 ar
    13     8    17 1
    14    11    12 1
    15    11    14 1
    16    11    15 1
    17    12    16 1
    18    13    14 1
    19    13    16 1
    20    17    18 ar
    21    17    22 ar
    22    18    19 ar
    23    18    28 1
    24    19    20 ar
    25    20    21 ar
    26    21    22 ar
    27    21    23 1
    28    23    24 2
    29    23    26 1
    30    24    25 1
    31    25    27 2
    32    26    27 1
    33     1    29 1
    34     2    30 1
    35     3    31 1
    36     4    32 1
    37    15    33 1
    38    11    34 1
    39    12    35 1
    40    12    36 1
    41    14    37 1
    42    14    38 1
    43    16    39 1
    44    13    40 1
    45    13    41 1
    46    22    42 1
    47    19    43 1
    48    28    44 1
    49    20    45 1
    50    24    46 1
    51    26    47 1
    52    25    48 1
@<TRIPOS>SUBSTRUCTURE
     1 LWH         1 TEMP              0 ****  ****    0 ROOT
