@<TRIPOS>MOLECULE
molecule
   43    47     1     0     0
SMALL
bcc


@<TRIPOS>ATOM
      1 C1           0.0000     0.0000     0.0000 ca         1 LWJ       0.094400
      2 C2           1.4050     0.0000     0.0000 ca         1 LWJ      -0.088200
      3 N3           1.7860     0.0000     1.3270 na         1 LWJ      -0.262300
      4 C4           0.6490     0.0010     2.0750 cc         1 LWJ       0.428800
      5 N5          -0.3960     0.0060     1.3000 nd         1 LWJ      -0.601100
      6 C6           5.0620    -0.2160    -9.8130 ca         1 LWJ      -0.118800
      7 C7           5.3170     0.8730    -8.9560 ca         1 LWJ      -0.030200
      8 C8           6.2880     1.8050    -9.3070 ca         1 LWJ      -0.149000
      9 C9           6.9900     1.6550   -10.4830 ca         1 LWJ      -0.099000
     10 C10          6.7360     0.5800   -11.3260 ca         1 LWJ      -0.161000
     11 C11          5.7890    -0.3480   -11.0040 ca         1 LWJ      -0.069000
     12 C12          3.7000    -0.3790    -8.0400 cc         1 LWJ      -0.143300
     13 N13          4.4730     0.7530    -7.8770 na         1 LWJ      -0.173400
     14 C14          4.0430    -0.9890    -9.2050 cd         1 LWJ      -0.115200
     15 C15          1.7000    -0.6310    -4.7450 cc         1 LWJ       0.251300
     16 C16          2.6730    -0.3740    -5.7110 cd         1 LWJ      -0.415900
     17 C17          3.6570     0.4370    -5.1000 cd         1 LWJ       0.358200
     18 N18          3.3020     0.6490    -3.8630 nc         1 LWJ      -0.504800
     19 N19          2.0890    -0.0020    -3.6140 na         1 LWJ       0.148300
     20 O21          1.8270    -1.6470    -7.4700 o          1 LWJ      -0.530100
     21 C22          1.3950    -0.0020    -2.3960 ca         1 LWJ       0.026800
     22 C23          2.0970    -0.0010    -1.2030 ca         1 LWJ      -0.114000
     23 C24         -0.6910     0.0000    -1.2160 ca         1 LWJ      -0.059000
     24 C25          0.0020    -0.0010    -2.3920 ca         1 LWJ      -0.150000
     25 N26          0.5550    -1.3800    -4.9140 nv         1 LWJ      -0.943200
     26 C27          0.6060     0.0050     3.5810 c3         1 LWJ      -0.099400
     27 H1           2.7240    -0.0040     1.6750 hn         1 LWJ       0.305700
     28 H4           7.7460     2.3820   -10.7540 ha         1 LWJ       0.131000
     29 H5           7.2970     0.4760   -12.2470 ha         1 LWJ       0.129000
     30 H6           5.5980    -1.1820   -11.6670 ha         1 LWJ       0.132000
     31 H7           4.4230     1.3860    -7.1030 hn         1 LWJ       0.303700
     32 H8           3.6090    -1.9000    -9.6010 ha         1 LWJ       0.167000
     33 H9           4.5530     0.8170    -5.5770 h4         1 LWJ       0.048100
     34 H10          3.1740    -0.1140    -1.2080 ha         1 LWJ       0.150000
     35 H11         -1.7740     0.0020    -1.2240 ha         1 LWJ       0.150000
     36 H12         -0.5380     0.0070    -3.3320 ha         1 LWJ       0.147000
     37 H13         -0.2300    -0.9920    -5.4000 hn         1 LWJ       0.450800
     38 H14          0.5230    -2.3260    -4.5880 hn         1 LWJ       0.450800
     39 H15          1.1040     0.8920     3.9540 hc         1 LWJ       0.061700
     40 H16          1.1090    -0.8770     3.9590 hc         1 LWJ       0.061700
     41 H17         -0.4250     0.0030     3.9130 hc         1 LWJ       0.061700
     42 C20          2.6740    -0.8550    -7.0990 c          1 LWJ       0.644900
     43 H3           6.4930     2.6470    -8.6560 ha         1 LWJ       0.126000
@<TRIPOS>BOND
     1    26     4 1
     2     4     5 2
     3     4     3 1
     4     5     1 1
     5     3     2 1
     6     1     2 ar
     7     1    23 ar
     8     2    22 ar
     9    23    24 ar
    10    22    21 ar
    11    24    21 ar
    12    21    19 1
    13    19    18 1
    14    19    15 1
    15    18    17 2
    16    25    15 1
    17    15    16 2
    18    17    16 1
    19    16    42 1
    20    42    20 2
    21    42    12 1
    22    12    13 1
    23    12    14 2
    24    13     7 1
    25    14     6 1
    26     7     8 ar
    27     7     6 ar
    28     8     9 ar
    29     6    11 ar
    30     9    10 ar
    31    11    10 ar
    32     3    27 1
    33     8    43 1
    34     9    28 1
    35    10    29 1
    36    11    30 1
    37    13    31 1
    38    14    32 1
    39    17    33 1
    40    22    34 1
    41    23    35 1
    42    24    36 1
    43    25    37 1
    44    25    38 1
    45    26    39 1
    46    26    40 1
    47    26    41 1
@<TRIPOS>SUBSTRUCTURE
     1 LWJ         1 TEMP              0 ****  ****    0 ROOT
