@<TRIPOS>MOLECULE
LWJ
   43    47     1     0     0
SMALL
bcc


@<TRIPOS>ATOM
      1 C1           0.0000     0.0000     0.0000 ca         1 LWJ       0.073400
      2 C2           1.4050     0.0000     0.0000 ca         1 LWJ      -0.276200
      3 N3           1.7860     0.0000     1.3270 na         1 LWJ       0.273700
      4 C4           0.6490     0.0010     2.0750 cc         1 LWJ       0.212800
      5 N5          -0.3960     0.0060     1.3000 nd         1 LWJ      -0.516100
      6 C6           5.0620    -0.2160    -9.8130 ca         1 LWJ      -0.122800
      7 C7           5.3170     0.8730    -8.9560 ca         1 LWJ      -0.219200
      8 C8           6.2880     1.8050    -9.3070 ca         1 LWJ      -0.109000
      9 C9           6.9900     1.6550   -10.4830 ca         1 LWJ      -0.075000
     10 C10          6.7360     0.5800   -11.3260 ca         1 LWJ      -0.137000
     11 C11          5.7890    -0.3480   -11.0040 ca         1 LWJ      -0.032000
     12 C12          3.7000    -0.3790    -8.0400 cc         1 LWJ      -0.342300
     13 N13          4.4730     0.7530    -7.8770 na         1 LWJ       0.358600
     14 C14          4.0430    -0.9890    -9.2050 cd         1 LWJ      -0.077200
     15 C15          1.7000    -0.6310    -4.7450 cc         1 LWJ      -0.060700
     16 C16          2.6730    -0.3740    -5.7110 cd         1 LWJ      -0.441900
     17 C17          3.6570     0.4370    -5.1000 cd         1 LWJ       0.413200
     18 N18          3.3020     0.6490    -3.8630 nc         1 LWJ      -0.661800
     19 N19          2.0890    -0.0020    -3.6140 na         1 LWJ       0.635300
     20 O21          1.8270    -1.6470    -7.4700 o          1 LWJ      -0.573100
     21 C22          1.3950    -0.0020    -2.3960 ca         1 LWJ      -0.159200
     22 C23          2.0970    -0.0010    -1.2030 ca         1 LWJ      -0.051000
     23 C24         -0.6910     0.0000    -1.2160 ca         1 LWJ      -0.024000
     24 C25          0.0020    -0.0010    -2.3920 ca         1 LWJ      -0.125000
     25 N26          0.5550    -1.3800    -4.9140 nv         1 LWJ      -0.486200
     26 C27          0.6060     0.0050     3.5810 c3         1 LWJ       0.015600
     27 H1           2.7240    -0.0040     1.6750 hn         1 LWJ       0.129700
     28 H4           7.7460     2.3820   -10.7540 ha         1 LWJ       0.100000
     29 H5           7.2970     0.4760   -12.2470 ha         1 LWJ       0.103000
     30 H6           5.5980    -1.1820   -11.6670 ha         1 LWJ       0.101000
     31 H7           4.4230     1.3860    -7.1030 hn         1 LWJ       0.130700
     32 H8           3.6090    -1.9000    -9.6010 ha         1 LWJ       0.138000
     33 H9           4.5530     0.8170    -5.5770 h4         1 LWJ       0.004100
     34 H10          3.1740    -0.1140    -1.2080 ha         1 LWJ       0.121000
     35 H11         -1.7740     0.0020    -1.2240 ha         1 LWJ       0.116000
     36 H12         -0.5380     0.0070    -3.3320 ha         1 LWJ       0.121000
     37 H13         -0.2300    -0.9920    -5.4000 hn         1 LWJ       0.284300
     38 H14          0.5230    -2.3260    -4.5880 hn         1 LWJ       0.284300
     39 H15          1.1040     0.8920     3.9540 hc         1 LWJ       0.017367
     40 H16          1.1090    -0.8770     3.9590 hc         1 LWJ       0.017367
     41 H17         -0.4250     0.0030     3.9130 hc         1 LWJ       0.017367
     42 C20          2.6740    -0.8550    -7.0990 c          1 LWJ       0.719900
     43 H3           6.4930     2.6470    -8.6560 ha         1 LWJ       0.099000
@<TRIPOS>BOND
     1     1     2 ar  
     2     1     5 1   
     3     1    23 ar  
     4     2     3 1   
     5     2    22 ar  
     6     3     4 1   
     7     3    27 1   
     8     4     5 2   
     9     4    26 1   
    10     6     7 ar  
    11     6    11 ar  
    12     6    14 1   
    13     7     8 ar  
    14     7    13 1   
    15     8     9 ar  
    16     8    43 1   
    17     9    10 ar  
    18     9    28 1   
    19    10    11 ar  
    20    10    29 1   
    21    11    30 1   
    22    12    13 1   
    23    12    14 2   
    24    12    42 1   
    25    13    31 1   
    26    14    32 1   
    27    15    16 2   
    28    15    19 1   
    29    15    25 1   
    30    16    17 1   
    31    16    42 1   
    32    17    18 2   
    33    17    33 1   
    34    18    19 1   
    35    19    21 1   
    36    20    42 2   
    37    21    22 ar  
    38    21    24 ar  
    39    22    34 1   
    40    23    24 ar  
    41    23    35 1   
    42    24    36 1   
    43    25    37 1   
    44    25    38 1   
    45    26    39 1   
    46    26    40 1   
    47    26    41 1   
@<TRIPOS>SUBSTRUCTURE
     1 LWJ         1 TEMP              0 ****  ****    0 ROOT
