@<TRIPOS>MOLECULE
molecule
   34    36     1     0     0
SMALL
bcc


@<TRIPOS>ATOM
      1 C1           0.0000     0.0000     0.0000 c3         1 LWS      -0.068100
      2 C2           1.5300     0.0000     0.0000 c3         1 LWS      -0.101700
      3 C3           2.0600     0.0000     1.4150 ca         1 LWS      -0.108300
      4 C4           1.9320     0.8860     2.4590 ca         1 LWS      -0.077000
      5 C5           2.5490     0.6130     3.6820 ca         1 LWS       0.003000
      6 C6           3.2890    -0.5610     3.8330 ca         1 LWS      -0.155000
      7 C7           3.4110    -1.4430     2.7810 ca         1 LWS       0.108900
      8 C8           2.7960    -1.1710     1.5570 ca         1 LWS       0.013600
      9 N9           2.7760    -1.9000     0.3670 ns         1 LWS      -0.454100
     10 C10          2.0600    -1.2880    -0.5920 c          1 LWS       0.717500
     11 O11          1.8730    -1.6930    -1.7200 o          1 LWS      -0.598500
     12 F12          4.1300    -2.5770     2.9340 f          1 LWS      -0.143900
     13 C13          2.4180     1.5600     4.8100 cc         1 LWS      -0.079300
     14 C14          2.0950     2.8810     4.7140 cd         1 LWS      -0.178000
     15 C15          2.0800     3.4030     6.0180 cd         1 LWS      -0.206000
     16 C16          2.3890     2.3990     6.8660 cc         1 LWS      -0.147300
     17 N17          2.5930     1.2650     6.1370 na         1 LWS      -0.046100
     18 C18          2.9440    -0.0500     6.6800 c3         1 LWS       0.028600
     19 C19          2.0640     1.2080    -0.7720 c3         1 LWS      -0.068100
     20 H1          -0.3610    -0.1070    -1.0160 hc         1 LWS       0.048033
     21 H1A         -0.3610    -0.8260     0.6000 hc         1 LWS       0.048033
     22 H1B         -0.3610     0.9330     0.4150 hc         1 LWS       0.048033
     23 H4           1.3550     1.7940     2.3320 ha         1 LWS       0.148000
     24 H6           3.7700    -0.7780     4.7790 ha         1 LWS       0.153000
     25 HN9          3.2410    -2.7770     0.2420 hn         1 LWS       0.343500
     26 H14          1.8890     3.4270     3.8010 ha         1 LWS       0.149000
     27 H15          1.8610     4.4280     6.2940 ha         1 LWS       0.150000
     28 H16          2.4590     2.4800     7.9450 h4         1 LWS       0.166000
     29 H18          3.9810    -0.2680     6.4560 h1         1 LWS       0.054033
     30 H18A         2.3110    -0.8060     6.2330 h1         1 LWS       0.054033
     31 H18B         2.8000    -0.0470     7.7540 h1         1 LWS       0.054033
     32 H19          1.6630     2.1180    -0.3430 hc         1 LWS       0.048033
     33 H19A         3.1460     1.2260    -0.7110 hc         1 LWS       0.048033
     34 H19B         1.7630     1.1350    -1.8100 hc         1 LWS       0.048033
@<TRIPOS>BOND
     1     1     2 1
     2     2     3 1
     3     2    10 1
     4     2    19 1
     5     3     4 ar
     6     3     8 ar
     7     4     5 ar
     8     5     6 ar
     9     5    13 1
    10     6     7 ar
    11     7     8 ar
    12     7    12 1
    13     8     9 1
    14     9    10 1
    15    10    11 2
    16    13    14 2
    17    13    17 1
    18    14    15 1
    19    15    16 2
    20    16    17 1
    21    17    18 1
    22     1    20 1
    23     1    21 1
    24     1    22 1
    25     4    23 1
    26     6    24 1
    27     9    25 1
    28    14    26 1
    29    15    27 1
    30    16    28 1
    31    18    29 1
    32    18    30 1
    33    18    31 1
    34    19    32 1
    35    19    33 1
    36    19    34 1
@<TRIPOS>SUBSTRUCTURE
     1 LWS         1 TEMP              0 ****  ****    0 ROOT
