@<TRIPOS>MOLECULE
molecule
   45    48     1     0     0
SMALL
bcc


@<TRIPOS>ATOM
      1 C4           0.0000     0.0000     0.0000 ca         1 LWW      -0.298500
      2 C5           1.3820     0.0000     0.0000 ca         1 LWW      -0.029000
      3 C6           2.0730     0.0000     1.1980 ca         1 LWW      -0.149500
      4 C10         -1.1410    -1.6740    -1.9860 ca         1 LWW      -0.289500
      5 C13         -1.5460    -4.3140    -2.6980 ca         1 LWW      -0.069300
      6 C15         -2.2810    -2.3350    -1.5680 ca         1 LWW      -0.031000
      7 C20         -0.6680    -8.8460    -1.1830 cc         1 LWW      -0.143300
      8 C21         -0.6820   -10.2050    -1.2090 cd         1 LWW      -0.085200
      9 C22         -0.0160   -10.6650    -0.0490 ca         1 LWW      -0.251100
     10 C26          1.0820    -9.7030     1.8670 ca         1 LWW      -0.275300
     11 C1           1.3820     0.0010     2.3940 ca         1 LWW      -0.073000
     12 C2          -0.0010     0.0020     2.3940 ca         1 LWW      -0.149500
     13 C3          -0.6920     0.0010     1.1960 ca         1 LWW      -0.029000
     14 S7          -0.8800     0.0070    -1.5270 sy         1 LWW       1.290600
     15 O8          -2.1630     0.5510    -1.2470 o          1 LWW      -0.621800
     16 O9           0.0020     0.5560    -2.4960 o          1 LWW      -0.621800
     17 C11         -0.2040    -2.3320    -2.7600 ca         1 LWW      -0.031000
     18 C12         -0.4060    -3.6530    -3.1160 ca         1 LWW      -0.135500
     19 C14         -2.4860    -3.6540    -1.9290 ca         1 LWW      -0.135500
     20 C16         -1.7660    -5.7540    -3.0860 c3         1 LWW       0.156300
     21 N17         -1.1800    -6.6290    -2.0670 ns         1 LWW      -0.586900
     22 C18         -1.2560    -7.9680    -2.2040 c          1 LWW       0.695300
     23 O19         -1.8120    -8.4490    -3.1740 o          1 LWW      -0.587100
     24 C23          0.2840   -11.9270     0.4700 ca         1 LWW       0.485200
     25 N24          0.9380   -12.0340     1.6080 nb         1 LWW      -0.713000
     26 C25          1.3320   -10.9760     2.2990 ca         1 LWW       0.441200
     27 C27          0.3940    -9.5190     0.6690 ca         1 LWW      -0.004200
     28 N28         -0.0180    -8.4220    -0.0380 na         1 LWW      -0.171400
     29 H5           1.9240    -0.0010    -0.9380 ha         1 LWW       0.150000
     30 H6           3.1560    -0.0000     1.1980 ha         1 LWW       0.138000
     31 H15         -3.0180    -1.8170    -0.9660 ha         1 LWW       0.154500
     32 H21         -1.0430   -10.8230    -2.0230 ha         1 LWW       0.176000
     33 H26          1.4140    -8.8510     2.4470 ha         1 LWW       0.133000
     34 H1           1.9230     0.0010     3.3330 ha         1 LWW       0.135000
     35 H2          -0.5430     0.0030     3.3310 ha         1 LWW       0.138000
     36 H3          -1.7750     0.0010     1.1950 ha         1 LWW       0.150000
     37 H11          0.6890    -1.8140    -3.0880 ha         1 LWW       0.154500
     38 H12          0.3300    -4.1700    -3.7200 ha         1 LWW       0.144000
     39 H14         -3.3790    -4.1730    -1.6020 ha         1 LWW       0.144000
     40 H16         -1.2940    -5.9470    -4.0420 h1         1 LWW       0.067700
     41 H16A        -2.8290    -5.9490    -3.1620 h1         1 LWW       0.067700
     42 HN17        -0.7250    -6.2320    -1.2690 hn         1 LWW       0.309500
     43 H23         -0.0210   -12.8190    -0.0640 h4         1 LWW       0.029100
     44 H25          1.8670   -11.1220     3.2290 h4         1 LWW       0.024100
     45 HN28         0.1320    -7.4690     0.2270 hn         1 LWW       0.297700
@<TRIPOS>BOND
     1     1     2 ar
     2     1    13 ar
     3     1    14 1
     4     2     3 ar
     5     3    11 ar
     6     4     6 ar
     7     4    14 1
     8     4    17 ar
     9     5    18 ar
    10     5    19 ar
    11     5    20 1
    12     6    19 ar
    13     7     8 2
    14     7    22 1
    15     7    28 1
    16     8     9 1
    17     9    24 ar
    18     9    27 ar
    19    10    26 ar
    20    10    27 ar
    21    11    12 ar
    22    12    13 ar
    23    14    15 2
    24    14    16 2
    25    17    18 ar
    26    20    21 1
    27    21    22 1
    28    22    23 2
    29    24    25 ar
    30    25    26 ar
    31    27    28 1
    32     2    29 1
    33     3    30 1
    34     6    31 1
    35     8    32 1
    36    10    33 1
    37    11    34 1
    38    12    35 1
    39    13    36 1
    40    17    37 1
    41    18    38 1
    42    19    39 1
    43    20    40 1
    44    20    41 1
    45    21    42 1
    46    24    43 1
    47    26    44 1
    48    28    45 1
@<TRIPOS>SUBSTRUCTURE
     1 LWW         1 TEMP              0 ****  ****    0 ROOT
