@<TRIPOS>MOLECULE
LWW
   45    48     1     0     0
SMALL
bcc


@<TRIPOS>ATOM
      1 C4           0.0000     0.0000     0.0000 ca         1 LWW      -0.145500
      2 C5           1.3820     0.0000     0.0000 ca         1 LWW       0.001000
      3 C6           2.0730     0.0000     1.1980 ca         1 LWW      -0.131000
      4 C10         -1.1410    -1.6740    -1.9860 ca         1 LWW      -0.136500
      5 C13         -1.5460    -4.3140    -2.6980 ca         1 LWW      -0.080300
      6 C15         -2.2810    -2.3350    -1.5680 ca         1 LWW       0.001000
      7 C20         -0.6680    -8.8460    -1.1830 cc         1 LWW      -0.348300
      8 C21         -0.6820   -10.2050    -1.2090 cd         1 LWW      -0.035200
      9 C22         -0.0160   -10.6650    -0.0490 ca         1 LWW      -0.253100
     10 C26          1.0820    -9.7030     1.8670 ca         1 LWW      -0.233300
     11 C1           1.3820     0.0010     2.3940 ca         1 LWW      -0.047000
     12 C2          -0.0010     0.0020     2.3940 ca         1 LWW      -0.131000
     13 C3          -0.6920     0.0010     1.1960 ca         1 LWW       0.001000
     14 S7          -0.8800     0.0070    -1.5270 sy         1 LWW       0.962600
     15 O8          -2.1630     0.5510    -1.2470 o          1 LWW      -0.587800
     16 O9           0.0020     0.5560    -2.4960 o          1 LWW      -0.587800
     17 C11         -0.2040    -2.3320    -2.7600 ca         1 LWW       0.001000
     18 C12         -0.4060    -3.6530    -3.1160 ca         1 LWW      -0.116000
     19 C14         -2.4860    -3.6540    -1.9290 ca         1 LWW      -0.116000
     20 C16         -1.7660    -5.7540    -3.0860 c3         1 LWW       0.109300
     21 N17         -1.1800    -6.6290    -2.0670 ns         1 LWW      -0.206900
     22 C18         -1.2560    -7.9680    -2.2040 c          1 LWW       0.626300
     23 O19         -1.8120    -8.4490    -3.1740 o          1 LWW      -0.628100
     24 C23          0.2840   -11.9270     0.4700 ca         1 LWW       0.483200
     25 N24          0.9380   -12.0340     1.6080 nb         1 LWW      -0.614000
     26 C25          1.3320   -10.9760     2.2990 ca         1 LWW       0.427200
     27 C27          0.3940    -9.5190     0.6690 ca         1 LWW      -0.200200
     28 N28         -0.0180    -8.4220    -0.0380 na         1 LWW       0.376600
     29 H5           1.9240    -0.0010    -0.9380 ha         1 LWW       0.122000
     30 H6           3.1560    -0.0000     1.1980 ha         1 LWW       0.110000
     31 H15         -3.0180    -1.8170    -0.9660 ha         1 LWW       0.125500
     32 H21         -1.0430   -10.8230    -2.0230 ha         1 LWW       0.145000
     33 H26          1.4140    -8.8510     2.4470 ha         1 LWW       0.109000
     34 H1           1.9230     0.0010     3.3330 ha         1 LWW       0.103000
     35 H2          -0.5430     0.0030     3.3310 ha         1 LWW       0.110000
     36 H3          -1.7750     0.0010     1.1950 ha         1 LWW       0.122000
     37 H11          0.6890    -1.8140    -3.0880 ha         1 LWW       0.125500
     38 H12          0.3300    -4.1700    -3.7200 ha         1 LWW       0.115000
     39 H14         -3.3790    -4.1730    -1.6020 ha         1 LWW       0.115000
     40 H16         -1.2940    -5.9470    -4.0420 h1         1 LWW       0.034700
     41 H16A        -2.8290    -5.9490    -3.1620 h1         1 LWW       0.034700
     42 HN17        -0.7250    -6.2320    -1.2690 hn         1 LWW       0.166500
     43 H23         -0.0210   -12.8190    -0.0640 h4         1 LWW      -0.019900
     44 H25          1.8670   -11.1220     3.2290 h4         1 LWW      -0.021900
     45 HN28         0.1320    -7.4690     0.2270 hn         1 LWW       0.113700
@<TRIPOS>BOND
     1     1     2 ar  
     2     1    13 ar  
     3     1    14 1   
     4     2     3 ar  
     5     2    29 1   
     6     3    11 ar  
     7     3    30 1   
     8     4     6 ar  
     9     4    14 1   
    10     4    17 ar  
    11     5    18 ar  
    12     5    19 ar  
    13     5    20 1   
    14     6    19 ar  
    15     6    31 1   
    16     7     8 2   
    17     7    22 1   
    18     7    28 1   
    19     8     9 1   
    20     8    32 1   
    21     9    24 ar  
    22     9    27 ar  
    23    10    26 ar  
    24    10    27 ar  
    25    10    33 1   
    26    11    12 ar  
    27    11    34 1   
    28    12    13 ar  
    29    12    35 1   
    30    13    36 1   
    31    14    15 2   
    32    14    16 2   
    33    17    18 ar  
    34    17    37 1   
    35    18    38 1   
    36    19    39 1   
    37    20    21 1   
    38    20    40 1   
    39    20    41 1   
    40    21    22 1   
    41    21    42 1   
    42    22    23 2   
    43    24    25 ar  
    44    24    43 1   
    45    25    26 ar  
    46    26    44 1   
    47    27    28 1   
    48    28    45 1   
@<TRIPOS>SUBSTRUCTURE
     1 LWW         1 TEMP              0 ****  ****    0 ROOT
