@<TRIPOS>MOLECULE
LX0
   56    59     1     0     0
SMALL
bcc


@<TRIPOS>ATOM
      1 O3           0.0000     0.0000     0.0000 o          1 LX0      -0.820300
      2 C1           1.3420     0.0000     0.0000 c          1 LX0       0.956600
      3 O2           1.9470    -0.0000    -1.0460 o          1 LX0      -0.820300
      4 C4           2.0960     0.0000     1.3060 c3         1 LX0      -0.198500
      5 N5           3.4680    -0.4740     1.0790 nz         1 LX0       0.078400
      6 C6           2.1350     1.4210     1.8730 c3         1 LX0       0.039900
      7 C7           2.7790     1.4010     3.2340 ca         1 LX0      -0.126300
      8 C12          4.1480     1.5650     3.3500 ca         1 LX0      -0.124500
      9 C11          4.7440     1.5470     4.5960 ca         1 LX0      -0.046500
     10 C10          3.9640     1.3640     5.7360 cp         1 LX0      -0.157500
     11 C9           2.5850     1.2000     5.6130 ca         1 LX0      -0.046500
     12 C8           1.9990     1.2250     4.3630 ca         1 LX0      -0.124500
     13 C13          4.5980     1.3440     7.0770 cp         1 LX0       0.742500
     14 N18          3.8520     1.1700     8.1630 nb         1 LX0      -0.745000
     15 C17          4.4220     1.1520     9.3650 ca         1 LX0       0.758900
     16 N16          5.7360     1.3100     9.4790 nb         1 LX0      -0.753000
     17 C15          6.4830     1.4830     8.3940 ca         1 LX0       0.798900
     18 N19          7.8480     1.6460     8.5130 nv         1 LX0      -0.637500
     19 N14          5.9140     1.4960     7.1910 nb         1 LX0      -0.743000
     20 N20          3.6470     0.9710    10.4930 nu         1 LX0      -0.465900
     21 C21          4.2740     0.9510    11.8160 c3         1 LX0       0.190800
     22 C22          4.7840    -0.4600    12.1180 c3         1 LX0      -0.015100
     23 C23          3.2620     1.3540    12.8570 ca         1 LX0      -0.113300
     24 C28          1.9530     0.8860    12.7590 ca         1 LX0      -0.108000
     25 C27          1.0140     1.2310    13.6830 ca         1 LX0      -0.073000
     26 C26          1.3670     2.0690    14.7530 ca         1 LX0      -0.035000
     27 C32          0.4260     2.4460    15.7270 ca         1 LX0      -0.087000
     28 C31          0.8040     3.2590    16.7500 ca         1 LX0      -0.095000
     29 C30          2.1130     3.7260    16.8480 ca         1 LX0      -0.095000
     30 C29          3.0520     3.3830    15.9250 ca         1 LX0      -0.087000
     31 C25          2.6990     2.5440    14.8540 ca         1 LX0      -0.034000
     32 C24          3.6410     2.1630    13.8840 ca         1 LX0      -0.067000
     33 H4           1.5990    -0.6560     2.0100 hx         1 LX0       0.087700
     34 HN5          3.4500    -1.2680     0.4700 hn         1 LX0       0.212467
     35 HN5A         4.0080     0.2560     0.6580 hn         1 LX0       0.212467
     36 H6           1.1250     1.8040     1.9560 hc         1 LX0       0.056700
     37 H6A          2.7090     2.0580     1.2110 hc         1 LX0       0.056700
     38 H12          4.7530     1.7070     2.4630 ha         1 LX0       0.110500
     39 H11          5.8160     1.6760     4.6860 ha         1 LX0       0.130000
     40 H9           1.9730     1.0600     6.4960 ha         1 LX0       0.130000
     41 H8           0.9280     1.0980     4.2660 ha         1 LX0       0.110500
     42 HN19         8.2340     2.5620     8.6280 hn         1 LX0       0.284800
     43 HN1A         8.4530     0.8500     8.4670 hn         1 LX0       0.284800
     44 HN20         2.6550     0.8720    10.4070 hn         1 LX0       0.311800
     45 H21          5.1040     1.6460    11.8320 h1         1 LX0       0.059700
     46 H22          4.6790    -0.6630    13.1770 hc         1 LX0       0.015033
     47 H22A         4.2060    -1.1810    11.5530 hc         1 LX0       0.015033
     48 H22B         5.8280    -0.5340    11.8380 hc         1 LX0       0.015033
     49 H28          1.6780     0.2380    11.9360 ha         1 LX0       0.105000
     50 H27          0.0000     0.8590    13.5930 ha         1 LX0       0.109000
     51 H32         -0.5960     2.0900    15.6630 ha         1 LX0       0.108000
     52 H31          0.0770     3.5480    17.4990 ha         1 LX0       0.103000
     53 H30          2.3880     4.3720    17.6730 ha         1 LX0       0.103000
     54 H29          4.0660     3.7540    16.0140 ha         1 LX0       0.107000
     55 H24          4.6350     2.5940    13.8950 ha         1 LX0       0.112000
     56 H53          3.8830    -0.7270     1.9540 hn         1 LX0       0.212467
@<TRIPOS>BOND
     1     1     2 1   
     2     2     3 1   
     3     2     4 1   
     4     4     5 1   
     5     4     6 1   
     6     4    33 1   
     7     5    34 1   
     8     5    35 1   
     9     5    56 1   
    10     6     7 1   
    11     6    36 1   
    12     6    37 1   
    13     7     8 ar  
    14     7    12 ar  
    15     8     9 ar  
    16     8    38 1   
    17     9    10 ar  
    18     9    39 1   
    19    10    11 ar  
    20    10    13 1   
    21    11    12 ar  
    22    11    40 1   
    23    12    41 1   
    24    13    14 ar  
    25    13    19 ar  
    26    14    15 ar  
    27    15    16 ar  
    28    15    20 1   
    29    16    17 ar  
    30    17    18 1   
    31    17    19 ar  
    32    18    42 1   
    33    18    43 1   
    34    20    21 1   
    35    20    44 1   
    36    21    22 1   
    37    21    23 1   
    38    21    45 1   
    39    22    46 1   
    40    22    47 1   
    41    22    48 1   
    42    23    24 ar  
    43    23    32 ar  
    44    24    25 ar  
    45    24    49 1   
    46    25    26 ar  
    47    25    50 1   
    48    26    27 ar  
    49    26    31 ar  
    50    27    28 ar  
    51    27    51 1   
    52    28    29 ar  
    53    28    52 1   
    54    29    30 ar  
    55    29    53 1   
    56    30    31 ar  
    57    30    54 1   
    58    31    32 ar  
    59    32    55 1   
@<TRIPOS>SUBSTRUCTURE
     1 LX0         1 TEMP              0 ****  ****    0 ROOT
