@<TRIPOS>MOLECULE
molecule
   56    59     1     0     0
SMALL
bcc


@<TRIPOS>ATOM
      1 O3           0.0000     0.0000     0.0000 o          1 LX0      -0.776300
      2 C1           1.3420     0.0000     0.0000 c          1 LX0       0.868600
      3 O2           1.9470    -0.0000    -1.0460 o          1 LX0      -0.776300
      4 C4           2.0960     0.0000     1.3060 c3         1 LX0      -0.012500
      5 N5           3.4680    -0.4740     1.0790 nz         1 LX0      -0.790600
      6 C6           2.1350     1.4210     1.8730 c3         1 LX0      -0.044100
      7 C7           2.7790     1.4010     3.2340 ca         1 LX0      -0.105300
      8 C12          4.1480     1.5650     3.3500 ca         1 LX0      -0.155500
      9 C11          4.7440     1.5470     4.5960 ca         1 LX0      -0.071500
     10 C10          3.9640     1.3640     5.7360 cp         1 LX0      -0.143500
     11 C9           2.5850     1.2000     5.6130 ca         1 LX0      -0.071500
     12 C8           1.9990     1.2250     4.3630 ca         1 LX0      -0.155500
     13 C13          4.5980     1.3440     7.0770 cp         1 LX0       0.814500
     14 N18          3.8520     1.1700     8.1630 nb         1 LX0      -0.852000
     15 C17          4.4220     1.1520     9.3650 ca         1 LX0       0.981900
     16 N16          5.7360     1.3100     9.4790 nb         1 LX0      -0.859000
     17 C15          6.4830     1.4830     8.3940 ca         1 LX0       1.005900
     18 N19          7.8480     1.6460     8.5130 nv         1 LX0      -1.060500
     19 N14          5.9140     1.4960     7.1910 nb         1 LX0      -0.846000
     20 N20          3.6470     0.9710    10.4930 nu         1 LX0      -0.882900
     21 C21          4.2740     0.9510    11.8160 c3         1 LX0       0.291800
     22 C22          4.7840    -0.4600    12.1180 c3         1 LX0      -0.107100
     23 C23          3.2620     1.3540    12.8570 ca         1 LX0      -0.101300
     24 C28          1.9530     0.8860    12.7590 ca         1 LX0      -0.129000
     25 C27          1.0140     1.2310    13.6830 ca         1 LX0      -0.106000
     26 C26          1.3670     2.0690    14.7530 ca         1 LX0      -0.035000
     27 C32          0.4260     2.4460    15.7270 ca         1 LX0      -0.115000
     28 C31          0.8040     3.2590    16.7500 ca         1 LX0      -0.122000
     29 C30          2.1130     3.7260    16.8480 ca         1 LX0      -0.122000
     30 C29          3.0520     3.3830    15.9250 ca         1 LX0      -0.115000
     31 C25          2.6990     2.5440    14.8540 ca         1 LX0      -0.033000
     32 C24          3.6410     2.1630    13.8840 ca         1 LX0      -0.101000
     33 H4           1.5990    -0.6560     2.0100 hx         1 LX0       0.106700
     34 HN5          3.4500    -1.2680     0.4700 hn         1 LX0       0.440133
     35 HN5A         4.0080     0.2560     0.6580 hn         1 LX0       0.440133
     36 H6           1.1250     1.8040     1.9560 hc         1 LX0       0.092200
     37 H6A          2.7090     2.0580     1.2110 hc         1 LX0       0.092200
     38 H12          4.7530     1.7070     2.4630 ha         1 LX0       0.135500
     39 H11          5.8160     1.6760     4.6860 ha         1 LX0       0.162500
     40 H9           1.9730     1.0600     6.4960 ha         1 LX0       0.162500
     41 H8           0.9280     1.0980     4.2660 ha         1 LX0       0.135500
     42 HN19         8.2340     2.5620     8.6280 hn         1 LX0       0.449800
     43 HN1A         8.4530     0.8500     8.4670 hn         1 LX0       0.449800
     44 HN20         2.6550     0.8720    10.4070 hn         1 LX0       0.462800
     45 H21          5.1040     1.6460    11.8320 h1         1 LX0       0.086700
     46 H22          4.6790    -0.6630    13.1770 hc         1 LX0       0.047033
     47 H22A         4.2060    -1.1810    11.5530 hc         1 LX0       0.047033
     48 H22B         5.8280    -0.5340    11.8380 hc         1 LX0       0.047033
     49 H28          1.6780     0.2380    11.9360 ha         1 LX0       0.126000
     50 H27          0.0000     0.8590    13.5930 ha         1 LX0       0.136000
     51 H32         -0.5960     2.0900    15.6630 ha         1 LX0       0.134000
     52 H31          0.0770     3.5480    17.4990 ha         1 LX0       0.131000
     53 H30          2.3880     4.3720    17.6730 ha         1 LX0       0.130000
     54 H29          4.0660     3.7540    16.0140 ha         1 LX0       0.134000
     55 H24          4.6350     2.5940    13.8950 ha         1 LX0       0.138000
     56 H53          3.8830    -0.7270     1.9540 hn         1 LX0       0.440133
@<TRIPOS>BOND
     1     2     1 1
     2     3     2 1
     3     2     4 1
     4     6     4 1
     5     4     5 1
     6     4    33 1
     7     5    34 1
     8     5    35 1
     9     6     7 1
    10     6    36 1
    11     6    37 1
    12    12     7 ar
    13     7     8 ar
    14     8     9 ar
    15     8    38 1
    16    10     9 ar
    17     9    39 1
    18    11    10 ar
    19    10    13 1
    20    12    11 ar
    21    11    40 1
    22    12    41 1
    23    19    13 ar
    24    13    14 ar
    25    14    15 ar
    26    16    15 ar
    27    15    20 1
    28    17    16 ar
    29    18    17 1
    30    19    17 ar
    31    18    42 1
    32    18    43 1
    33    20    21 1
    34    20    44 1
    35    23    21 1
    36    21    22 1
    37    21    45 1
    38    22    46 1
    39    22    47 1
    40    22    48 1
    41    24    23 ar
    42    23    32 ar
    43    25    24 ar
    44    24    49 1
    45    25    26 ar
    46    25    50 1
    47    27    26 ar
    48    26    31 ar
    49    27    28 ar
    50    27    51 1
    51    28    29 ar
    52    28    52 1
    53    29    30 ar
    54    29    53 1
    55    31    30 ar
    56    30    54 1
    57    31    32 ar
    58    32    55 1
    59    56     5 1
@<TRIPOS>SUBSTRUCTURE
     1 LX0         1 TEMP              0 ****  ****    0 ROOT
