@<TRIPOS>MOLECULE
LX1
   24    23     1     0     0
SMALL
bcc


@<TRIPOS>ATOM
      1 O8          0.6040   -0.2280   -0.9780 o         1 LX1     -0.922500
      2 P           2.0510   -0.0200   -0.6570 p5        1 LX1      1.325900
      3 O6          2.5950   -0.6600    0.5850 o         1 LX1     -0.922500
      4 O7          3.0160    0.0190   -1.8320 o         1 LX1     -0.922500
      5 O5          2.1790    1.6830   -0.3060 os        1 LX1     -0.562200
      6 C5          3.4590    2.0730   -0.0120 c3        1 LX1      0.204400
      7 C4          4.1160    2.8650   -1.1750 c3        1 LX1      0.095100
      8 O4          3.4410    2.7250   -2.4040 oh        1 LX1     -0.668800
      9 C3          5.5800    2.4130   -1.3640 c3        1 LX1      0.107100
     10 O3          5.6880    1.2040   -2.0840 oh        1 LX1     -0.666800
     11 C2          6.3880    3.4720   -2.1420 c3        1 LX1      0.145100
     12 O2          5.9620    3.6000   -3.4900 oh        1 LX1     -0.642800
     13 C1          7.8700    3.1300   -2.1400 c3        1 LX1     -0.100100
     14 H51         3.4490    2.7640    0.8830 h1        1 LX1     -0.006800
     15 H52         4.0990    1.1770    0.2350 h1        1 LX1     -0.006800
     16 H4          4.1050    3.9670   -0.9470 h1        1 LX1      0.006700
     17 HO4         2.9570    1.8610   -2.3690 ho        1 LX1      0.488000
     18 H3          6.0650    2.2710   -0.3570 h1        1 LX1      0.014700
     19 HO3         4.8180    0.7380   -2.0520 ho        1 LX1      0.503000
     20 H2          6.2340    4.4810   -1.6620 h1        1 LX1      0.011700
     21 HO2         5.2290    2.9750   -3.6150 ho        1 LX1      0.449000
     22 H11         8.4320    3.8380   -2.7940 hc        1 LX1      0.023367
     23 H12         8.0090    2.0920   -2.5260 hc        1 LX1      0.023367
     24 H13         8.2720    3.1900   -1.1030 hc        1 LX1      0.023367
@<TRIPOS>BOND
     1    1    2 1   
     2    2    3 1   
     3    2    4 1   
     4    2    5 1   
     5    5    6 1   
     6    6    7 1   
     7    6   14 1   
     8    6   15 1   
     9    7    8 1   
    10    7    9 1   
    11    7   16 1   
    12    8   17 1   
    13    9   10 1   
    14    9   11 1   
    15    9   18 1   
    16   10   19 1   
    17   11   12 1   
    18   11   13 1   
    19   11   20 1   
    20   12   21 1   
    21   13   22 1   
    22   13   23 1   
    23   13   24 1   
@<TRIPOS>SUBSTRUCTURE
     1 LX1         1 TEMP              0 ****  ****    0 ROOT
