@<TRIPOS>MOLECULE
molecule
   24    23     1     0     0
SMALL
bcc


@<TRIPOS>ATOM
      1 O8           0.0000     0.0000     0.0000 o          1 LX1      -0.913500
      2 P            1.6090     0.0000     0.0000 p5         1 LX1       1.159900
      3 O6           2.1010     0.0000     1.3960 o          1 LX1      -0.913500
      4 O7           2.1460    -1.3160    -0.7570 o          1 LX1      -0.913500
      5 O5           2.1480     1.3130    -0.7580 os         1 LX1      -0.544200
      6 C5           3.5750     1.2550    -0.7250 c3         1 LX1       0.140400
      7 C4           4.1530     2.4800    -1.4320 c3         1 LX1       0.138100
      8 O4           3.7090     2.4990    -2.7900 oh         1 LX1      -0.578800
      9 C3           5.6800     2.4180    -1.3970 c3         1 LX1       0.156100
     10 O3           6.1240     1.2330    -2.0580 oh         1 LX1      -0.564800
     11 C2           6.2590     3.6440    -2.1050 c3         1 LX1       0.130100
     12 O2           5.8150     3.6630    -3.4630 oh         1 LX1      -0.548800
     13 C1           7.7860     3.5820    -2.0700 c3         1 LX1      -0.129100
     14 H51          3.9110     0.3560    -1.2280 h1         1 LX1       0.049200
     15 H52          3.9120     1.2400     0.3040 h1         1 LX1       0.049200
     16 H4           3.8160     3.3790    -0.9300 h1         1 LX1       0.011700
     17 HO4          2.9300     3.0260    -2.8590 ho         1 LX1       0.391000
     18 H3           6.0170     2.4050    -0.3670 h1         1 LX1       0.033700
     19 HO3          6.6710     0.7330    -1.4750 ho         1 LX1       0.382000
     20 H2           5.9220     4.5430    -1.6030 h1         1 LX1       0.016700
     21 HO2          5.9670     4.5180    -3.8310 ho         1 LX1       0.362000
     22 H11          8.1140     3.3280    -1.0690 hc         1 LX1       0.029367
     23 H12          8.1340     2.8280    -2.7660 hc         1 LX1       0.029367
     24 H13          8.1930     4.5460    -2.3490 hc         1 LX1       0.029367
@<TRIPOS>BOND
     1     1     2 1
     2     2     3 1
     3     2     4 1
     4     2     5 1
     5     5     6 1
     6     6     7 1
     7     6    14 1
     8     6    15 1
     9     7     8 1
    10     7     9 1
    11     7    16 1
    12     8    17 1
    13     9    10 1
    14     9    11 1
    15     9    18 1
    16    10    19 1
    17    11    12 1
    18    11    13 1
    19    11    20 1
    20    12    21 1
    21    13    22 1
    22    13    23 1
    23    13    24 1
@<TRIPOS>SUBSTRUCTURE
     1 LX1         1 TEMP              0 ****  ****    0 ROOT
