@<TRIPOS>MOLECULE
molecule
   75    79     1     0     0
SMALL
bcc


@<TRIPOS>ATOM
      1 F40          0.0000     0.0000     0.0000 f          1 LX2      -0.217967
      2 C37          1.3990     0.0000     0.0000 c3         1 LX2       0.676200
      3 F38          1.8650     0.0000     1.3190 f          1 LX2      -0.217967
      4 F39          1.8650    -1.1440    -0.6590 f          1 LX2      -0.217967
      5 C34          1.9030     1.2290    -0.7110 ca         1 LX2      -0.177300
      6 C35          3.2620     1.4740    -0.7920 ca         1 LX2       0.066400
      7 Cl36         4.3880     0.3650    -0.0740 cl         1 LX2      -0.047400
      8 C33          1.0070     2.1100    -1.2880 ca         1 LX2      -0.079000
      9 C32          1.4680     3.2370    -1.9400 ca         1 LX2      -0.138000
     10 C31          2.8260     3.4850    -2.0160 ca         1 LX2      -0.087000
     11 C30          3.7230     2.6030    -1.4450 ca         1 LX2      -0.125300
     12 C29          5.2030     2.8710    -1.5330 c3         1 LX2       0.199100
     13 N14          5.7450     2.2330    -2.7410 n3         1 LX2      -0.703600
     14 C15          5.0520     2.7120    -3.9450 c3         1 LX2       0.158800
     15 C16          5.4980     4.1410    -4.2570 c3         1 LX2       0.020900
     16 C23          6.9690     4.1480    -4.5850 ca         1 LX2      -0.063800
     17 C24          7.8520     4.8560    -3.7910 ca         1 LX2      -0.122500
     18 C25          9.2010     4.8610    -4.0920 ca         1 LX2      -0.125000
     19 C26          9.6670     4.1590    -5.1870 ca         1 LX2      -0.131000
     20 C27          8.7850     3.4500    -5.9810 ca         1 LX2      -0.125000
     21 C28          7.4360     3.4410    -5.6770 ca         1 LX2      -0.122500
     22 C17          4.7190     4.6650    -5.4360 ca         1 LX2      -0.063800
     23 C18          4.1090     5.9040    -5.3650 ca         1 LX2      -0.122500
     24 C19          3.3940     6.3850    -6.4460 ca         1 LX2      -0.125000
     25 C20          3.2880     5.6270    -7.5970 ca         1 LX2      -0.131000
     26 C21          3.8980     4.3880    -7.6680 ca         1 LX2      -0.125000
     27 C22          4.6160     3.9100    -6.5880 ca         1 LX2      -0.122500
     28 C13          5.6770     0.7700    -2.6400 c3         1 LX2       0.149800
     29 C12          6.7810     0.2700    -1.7080 c3         1 LX2      -0.083400
     30 C11          6.7900    -1.2600    -1.7010 c3         1 LX2       0.140400
     31 O10          7.7400    -1.7260    -0.7410 os         1 LX2      -0.330900
     32 C9           7.8740    -3.0720    -0.6090 ca         1 LX2       0.173100
     33 C8           8.7850    -3.6030     0.3120 ca         1 LX2      -0.130800
     34 C44          8.9180    -4.9960     0.4440 ca         1 LX2       0.016800
     35 C43          8.1360    -5.8360    -0.3450 ca         1 LX2      -0.148000
     36 C42          7.2430    -5.3010    -1.2470 ca         1 LX2      -0.101000
     37 C41          7.1060    -3.9260    -1.3770 ca         1 LX2      -0.274000
     38 C7           9.7280    -3.0140     1.2640 cc         1 LX2      -0.219200
     39 C6          10.3450    -4.0310     1.8860 cd         1 LX2      -0.085100
     40 N5           9.8730    -5.2250     1.4090 na         1 LX2      -0.014400
     41 C4          10.3180    -6.5460     1.8570 c3         1 LX2      -0.075700
     42 C2          11.3970    -7.0520     0.9340 c          1 LX2       0.871600
     43 O1          11.9580    -8.2520     1.1530 o          1 LX2      -0.827300
     44 O3          11.7580    -6.3770    -0.0010 o          1 LX2      -0.827300
     45 H33         -0.0580     1.9170    -1.2290 ha         1 LX2       0.153000
     46 H32          0.7660     3.9280    -2.3900 ha         1 LX2       0.140000
     47 H31          3.1870     4.3690    -2.5280 ha         1 LX2       0.143000
     48 H29          5.3750     3.9390    -1.5810 h1         1 LX2       0.071700
     49 H29A         5.6970     2.4650    -0.6590 h1         1 LX2       0.071700
     50 H15          5.2940     2.0670    -4.7810 h1         1 LX2       0.044700
     51 H15A         3.9820     2.6970    -3.7750 h1         1 LX2       0.044700
     52 H16          5.3180     4.7730    -3.3950 hc         1 LX2       0.057700
     53 H24          7.4860     5.4060    -2.9320 ha         1 LX2       0.129000
     54 H25          9.8930     5.4160    -3.4690 ha         1 LX2       0.127500
     55 H26         10.7240     4.1650    -5.4240 ha         1 LX2       0.126500
     56 H27          9.1510     2.8980    -6.8390 ha         1 LX2       0.127500
     57 H28          6.7440     2.8850    -6.2990 ha         1 LX2       0.129000
     58 H18          4.1930     6.4990    -4.4630 ha         1 LX2       0.129000
     59 H19          2.9170     7.3560    -6.3910 ha         1 LX2       0.127500
     60 H20          2.7260     6.0030    -8.4430 ha         1 LX2       0.126500
     61 H21          3.8160     3.7940    -8.5700 ha         1 LX2       0.127500
     62 H22          5.0950     2.9390    -6.6430 ha         1 LX2       0.129000
     63 H13          5.8090     0.3340    -3.6230 h1         1 LX2       0.041200
     64 H13A         4.7110     0.4800    -2.2440 h1         1 LX2       0.041200
     65 H12          7.7400     0.6350    -2.0570 hc         1 LX2       0.062200
     66 H12A         6.6000     0.6350    -0.7050 hc         1 LX2       0.062200
     67 H11          7.0620    -1.6240    -2.6850 h1         1 LX2       0.031700
     68 H11A         5.8040    -1.6250    -1.4410 h1         1 LX2       0.031700
     69 H43          8.2340    -6.9110    -0.2530 ha         1 LX2       0.135000
     70 H42          6.6350    -5.9600    -1.8550 ha         1 LX2       0.113000
     71 H41          6.3990    -3.5200    -2.0910 ha         1 LX2       0.113000
     72 H7           9.8960    -1.9570     1.4350 ha         1 LX2       0.139000
     73 H6          11.1030    -3.9230     2.6530 h4         1 LX2       0.156000
     74 H4           9.4810    -7.2330     1.8450 h1         1 LX2       0.050700
     75 H4A         10.7100    -6.4720     2.8650 h1         1 LX2       0.050700
@<TRIPOS>BOND
     1     1     2 1
     2     3     2 1
     3     2     4 1
     4     2     5 1
     5     6     5 ar
     6     5     8 ar
     7     7     6 1
     8     6    11 ar
     9     8     9 ar
    10     8    45 1
    11    10     9 ar
    12     9    46 1
    13    11    10 ar
    14    10    47 1
    15    12    11 1
    16    12    13 1
    17    12    48 1
    18    12    49 1
    19    13    28 1
    20    13    14 1
    21    14    15 1
    22    14    50 1
    23    14    51 1
    24    15    22 1
    25    15    16 1
    26    15    52 1
    27    21    16 ar
    28    16    17 ar
    29    17    18 ar
    30    17    53 1
    31    19    18 ar
    32    18    54 1
    33    20    19 ar
    34    19    55 1
    35    21    20 ar
    36    20    56 1
    37    21    57 1
    38    23    22 ar
    39    22    27 ar
    40    23    24 ar
    41    23    58 1
    42    24    25 ar
    43    24    59 1
    44    25    26 ar
    45    25    60 1
    46    27    26 ar
    47    26    61 1
    48    27    62 1
    49    28    29 1
    50    28    63 1
    51    28    64 1
    52    29    30 1
    53    29    65 1
    54    29    66 1
    55    30    31 1
    56    30    67 1
    57    30    68 1
    58    31    32 1
    59    32    33 ar
    60    32    37 ar
    61    38    33 1
    62    33    34 ar
    63    40    34 1
    64    34    35 ar
    65    36    35 ar
    66    35    69 1
    67    37    36 ar
    68    36    70 1
    69    37    71 1
    70    38    39 2
    71    38    72 1
    72    39    40 1
    73    39    73 1
    74    40    41 1
    75    41    42 1
    76    41    74 1
    77    41    75 1
    78    44    42 1
    79    42    43 1
@<TRIPOS>SUBSTRUCTURE
     1 LX2         1 TEMP              0 ****  ****    0 ROOT
