@<TRIPOS>MOLECULE
molecule
   73    74     1     0     0
SMALL
bcc


@<TRIPOS>ATOM
      1 C4           0.0000     0.0000     0.0000 c3         1 LX3      -0.091100
      2 C5           1.5300     0.0000     0.0000 c3         1 LX3      -0.086400
      3 C6           2.0410     0.0000     1.4420 c3         1 LX3      -0.075400
      4 C7           3.5700     0.0000     1.4420 c3         1 LX3      -0.103200
      5 C8           4.0730     0.0000     2.8620 ce         1 LX3       0.052600
      6 O9           9.7150     3.1940    11.0730 oh         1 LX3      -0.602800
      7 C10         10.6970     2.7340    10.1430 c3         1 LX3       0.146800
      8 C11         12.0800     3.2260    10.5760 c3         1 LX3      -0.121100
      9 C12         10.6890     1.2050    10.1040 c3         1 LX3      -0.121100
     10 C13         10.3750     3.2810     8.7500 c3         1 LX3      -0.064400
     11 C14          8.9920     2.7890     8.3170 c3         1 LX3      -0.079400
     12 C15          8.6690     3.3370     6.9250 c3         1 LX3      -0.085400
     13 C16          7.2860     2.8450     6.4920 c3         1 LX3      -0.076400
     14 C18          5.6020     2.9080     4.6730 ca         1 LX3      -0.084300
     15 C19          5.4790     1.7170     3.9880 ca         1 LX3      -0.098000
     16 C20          4.4770     3.6560     4.9750 ca         1 LX3      -0.125000
     17 C21          3.2220     3.2200     4.5880 ca         1 LX3      -0.127000
     18 C22          3.0830     2.0350     3.8980 ca         1 LX3      -0.118000
     19 C23          4.2140     1.2690     3.5930 ca         1 LX3      -0.038800
     20 C24          4.3950    -1.1650     3.4650 cf         1 LX3      -0.435000
     21 C25          4.2600    -2.3860     2.7630 cf         1 LX3      -0.195000
     22 C26          4.5820    -3.5520     3.3660 ce         1 LX3       0.007800
     23 C27          5.0780    -3.5940     4.7560 ce         1 LX3      -0.122200
     24 C28          5.9810    -2.7190     5.2030 c2         1 LX3      -0.133000
     25 C29          4.5100    -4.6780     5.6510 c3         1 LX3       0.195300
     26 O30          3.1630    -4.3560     6.0020 oh         1 LX3      -0.594800
     27 C31          4.5430    -6.0030     4.8850 c3         1 LX3      -0.099400
     28 C32          3.7490    -5.8690     3.5850 c3         1 LX3       0.155100
     29 O33          3.6610    -7.1460     2.9480 oh         1 LX3      -0.610800
     30 C34          4.4460    -4.8810     2.6500 c3         1 LX3      -0.063200
     31 H1          -0.3610    -0.8810     0.5170 hc         1 LX3       0.033700
     32 H2          -0.3610    -0.0070    -1.0210 hc         1 LX3       0.033700
     33 H3          -0.3610     0.8880     0.5040 hc         1 LX3       0.033700
     34 H4           1.8910    -0.8840    -0.5110 hc         1 LX3       0.039200
     35 H5           1.8910     0.8840    -0.5110 hc         1 LX3       0.039200
     36 H6           1.6800    -0.8840     1.9530 hc         1 LX3       0.051200
     37 H7           1.6800     0.8840     1.9530 hc         1 LX3       0.051200
     38 H8           3.9310     0.8840     0.9310 hc         1 LX3       0.050200
     39 H9           3.9310    -0.8850     0.9320 hc         1 LX3       0.050200
     40 H10         10.0250     3.0530    11.9520 ho         1 LX3       0.401000
     41 H11         12.8230     2.8850     9.8660 hc         1 LX3       0.041700
     42 H12         12.0840     4.3090    10.6100 hc         1 LX3       0.041700
     43 H13         12.3120     2.8330    11.5580 hc         1 LX3       0.041700
     44 H14         11.3150     0.8200    10.9000 hc         1 LX3       0.041700
     45 H15          9.6750     0.8460    10.2360 hc         1 LX3       0.041700
     46 H16         11.0700     0.8650     9.1490 hc         1 LX3       0.041700
     47 H17         11.1190     2.9330     8.0440 hc         1 LX3       0.048200
     48 H18         10.3810     4.3640     8.7770 hc         1 LX3       0.048200
     49 H19          8.9860     1.7060     8.2890 hc         1 LX3       0.051200
     50 H20          8.2480     3.1360     9.0230 hc         1 LX3       0.051200
     51 H21          8.6750     4.4200     6.9530 hc         1 LX3       0.038200
     52 H22          9.4140     2.9900     6.2190 hc         1 LX3       0.038200
     53 H23          6.5420     3.1930     7.1980 hc         1 LX3       0.048700
     54 H24          7.2800     1.7620     6.4650 hc         1 LX3       0.048700
     55 H25          6.9700     4.4750     5.1260 hc         1 LX3       0.045700
     56 H26          7.7080     3.0440     4.3930 hc         1 LX3       0.045700
     57 H27          6.3650     1.1700     3.6890 ha         1 LX3       0.130000
     58 H28          4.5800     4.5890     5.5160 ha         1 LX3       0.129000
     59 H29          2.3470     3.8130     4.8260 ha         1 LX3       0.129000
     60 H30          2.1000     1.6950     3.5960 ha         1 LX3       0.134000
     61 H31          5.0980    -1.5250     2.7230 ha         1 LX3       0.324000
     62 H32          3.8980    -2.3860     1.7410 ha         1 LX3       0.106000
     63 H33          6.3690    -1.9550     4.5400 ha         1 LX3       0.121500
     64 H34          6.3270    -2.7740     6.2280 ha         1 LX3       0.121500
     65 H35          5.1150    -4.7620     6.5460 h1         1 LX3       0.038700
     66 H36          3.0820    -4.3220     6.9410 ho         1 LX3       0.402000
     67 H37          4.1020    -6.7810     5.4950 hc         1 LX3       0.057200
     68 H38          5.5700    -6.2590     4.6530 hc         1 LX3       0.057200
     69 H39          2.7540    -5.5060     3.8100 h1         1 LX3       0.057700
     70 H40          2.7560    -7.3590     2.7940 ho         1 LX3       0.403000
     71 H41          3.8530    -4.7500     1.7530 hc         1 LX3       0.060700
     72 H42          5.4280    -5.2570     2.3920 hc         1 LX3       0.060700
     73 C17          6.9640     3.3920     5.0990 c3         1 LX3      -0.035100
@<TRIPOS>BOND
     1     9     7 1
     2     8     7 1
     3     7    10 1
     4     7     6 1
     5    10    11 1
     6    11    12 1
     7     1     2 1
     8    12    13 1
     9    13    73 1
    10    24    23 2
    11     3     2 1
    12     3     4 1
    13    23    22 1
    14    23    25 1
    15    30    22 1
    16    30    28 1
    17    27    28 1
    18    27    25 1
    19    26    25 1
    20    22    21 2
    21    73    14 1
    22    28    29 1
    23    21    20 1
    24    15    14 ar
    25    15    19 ar
    26    20     5 2
    27     4     5 1
    28     5    19 1
    29    14    16 ar
    30    19    18 ar
    31    16    17 ar
    32    18    17 ar
    33     1    31 1
    34     1    32 1
    35     1    33 1
    36     2    34 1
    37     2    35 1
    38     3    36 1
    39     3    37 1
    40     4    38 1
    41     4    39 1
    42     6    40 1
    43     8    41 1
    44     8    42 1
    45     8    43 1
    46     9    44 1
    47     9    45 1
    48     9    46 1
    49    10    47 1
    50    10    48 1
    51    11    49 1
    52    11    50 1
    53    12    51 1
    54    12    52 1
    55    13    53 1
    56    13    54 1
    57    73    55 1
    58    73    56 1
    59    15    57 1
    60    16    58 1
    61    17    59 1
    62    18    60 1
    63    20    61 1
    64    21    62 1
    65    24    63 1
    66    24    64 1
    67    25    65 1
    68    26    66 1
    69    27    67 1
    70    27    68 1
    71    28    69 1
    72    29    70 1
    73    30    71 1
    74    30    72 1
@<TRIPOS>SUBSTRUCTURE
     1 LX3         1 TEMP              0 ****  ****    0 ROOT
