@<TRIPOS>MOLECULE
LX8
   50    52     1     0     0
SMALL
bcc


@<TRIPOS>ATOM
      1 CAA         0.4080    0.0560   -0.5510 c2        1 LX8     -0.195000
      2 CAB        13.3310    4.8830    1.6620 c3        1 LX8     -0.152100
      3 CAC         1.0630    0.0390    2.2620 c3        1 LX8     -0.093100
      4 CAD         2.9760   -1.2610    1.4020 c3        1 LX8     -0.093100
      5 CAE         9.8160    7.4250    1.9020 c3        1 LX8     -0.123600
      6 CAF         9.2990    5.6720    0.1840 c3        1 LX8     -0.123600
      7 OAG        12.0840    6.5200    0.3370 o         1 LX8     -0.540000
      8 OAH         1.2590    2.8850    1.2480 o         1 LX8     -0.560500
      9 CAI         1.6840    0.0780   -0.1800 c2        1 LX8     -0.170200
     10 CAJ         6.5880    2.2920    2.1240 ca        1 LX8     -0.029000
     11 CAK         5.2490    4.8270    1.9900 ca        1 LX8     -0.176000
     12 CAL         4.4060    1.1680    1.6880 cc        1 LX8     -0.016200
     13 CAM         8.7280    3.7290    2.5610 c3        1 LX8     -0.040100
     14 OAN        11.0080    5.2890    1.8890 os        1 LX8     -0.457900
     15 OAO         7.4500    5.7930    2.4220 os        1 LX8     -0.309900
     16 OAP         3.2060    3.7200    1.5910 os        1 LX8     -0.325200
     17 CAQ        12.1350    5.6520    1.2090 c         1 LX8      0.645100
     18 CAR         7.2850    3.4630    2.2950 ca        1 LX8     -0.180300
     19 CAS         6.6060    4.7170    2.2240 ca        1 LX8      0.157100
     20 CAT         3.0720    1.2460    1.4600 cd        1 LX8     -0.183400
     21 CAU         2.4340    2.5650    1.4170 c         1 LX8      0.727800
     22 CAV         5.1960    2.3540    1.8810 ca        1 LX8     -0.188800
     23 CAW         4.5550    3.6060    1.8200 ca        1 LX8      0.186100
     24 CAX         8.7980    5.2690    2.6460 c3        1 LX8      0.136100
     25 CAY         2.1920    0.0420    1.2340 c3        1 LX8      0.040400
     26 CAZ         9.7400    5.9330    1.6120 c3        1 LX8      0.170800
     27 HAA         0.1160    0.0730   -1.6100 ha        1 LX8      0.116000
     28 HAAA       -0.4300    0.0350    0.1580 ha        1 LX8      0.116000
     29 HAB        13.0630    4.1540    2.4640 hc        1 LX8      0.076033
     30 HABA       13.7590    4.3350    0.7870 hc        1 LX8      0.076033
     31 HABB       14.0930    5.6020    2.0520 hc        1 LX8      0.076033
     32 HAC         0.4350   -0.8750    2.1340 hc        1 LX8      0.043867
     33 HACA        0.4150    0.9410    2.1390 hc        1 LX8      0.043867
     34 HACB        1.4880    0.0380    3.2940 hc        1 LX8      0.043867
     35 HAD         2.2880   -2.1280    1.2500 hc        1 LX8      0.043867
     36 HADA        3.7980   -1.3310    0.6510 hc        1 LX8      0.043867
     37 HADB        3.4070   -1.3280    2.4290 hc        1 LX8      0.043867
     38 HAE        10.2990    7.6010    2.8930 hc        1 LX8      0.059367
     39 HAEA       10.4120    7.9440    1.1130 hc        1 LX8      0.059367
     40 HAEB        8.7820    7.8450    1.9190 hc        1 LX8      0.059367
     41 HAF         9.3920    4.5880   -0.0640 hc        1 LX8      0.059367
     42 HAFA        8.2330    5.9830    0.0670 hc        1 LX8      0.059367
     43 HAFB        9.9320    6.2570   -0.5280 hc        1 LX8      0.059367
     44 HAI         2.4900    0.1120   -0.9330 ha        1 LX8      0.118000
     45 HAJ         7.0880    1.3130    2.1730 ha        1 LX8      0.143000
     46 HAK         4.7240    5.7890    1.9380 ha        1 LX8      0.177000
     47 HAL         4.9370    0.2030    1.7340 ha        1 LX8      0.148000
     48 HAM         9.0620    3.2710    3.5250 hc        1 LX8      0.073700
     49 HAMA        9.3850    3.3410    1.7440 hc        1 LX8      0.073700
     50 HAX         9.0810    5.6090    3.6770 h1        1 LX8      0.080700
@<TRIPOS>BOND
     1    1    9 2   
     2    1   27 1   
     3    1   28 1   
     4    2   17 1   
     5    2   29 1   
     6    2   30 1   
     7    2   31 1   
     8    3   25 1   
     9    3   32 1   
    10    3   33 1   
    11    3   34 1   
    12    4   25 1   
    13    4   35 1   
    14    4   36 1   
    15    4   37 1   
    16    5   26 1   
    17    5   38 1   
    18    5   39 1   
    19    5   40 1   
    20    6   26 1   
    21    6   41 1   
    22    6   42 1   
    23    6   43 1   
    24    7   17 2   
    25    8   21 2   
    26    9   25 1   
    27    9   44 1   
    28   10   18 ar  
    29   10   22 ar  
    30   10   45 1   
    31   11   19 ar  
    32   11   23 ar  
    33   11   46 1   
    34   12   20 2   
    35   12   22 1   
    36   12   47 1   
    37   13   18 1   
    38   13   24 1   
    39   13   48 1   
    40   13   49 1   
    41   14   17 1   
    42   14   26 1   
    43   15   19 1   
    44   15   24 1   
    45   16   21 1   
    46   16   23 1   
    47   18   19 ar  
    48   20   21 1   
    49   20   25 1   
    50   22   23 ar  
    51   24   26 1   
    52   24   50 1   
@<TRIPOS>SUBSTRUCTURE
     1 LX8         1 TEMP              0 ****  ****    0 ROOT
