@<TRIPOS>MOLECULE
molecule
   50    52     1     0     0
SMALL
bcc


@<TRIPOS>ATOM
      1 CAA          0.0000     0.0000     0.0000 c2         1 LX8      -0.199000
      2 CAB         13.5950     5.1690     2.1640 c3         1 LX8      -0.139100
      3 CAC          1.0700    -0.0000     2.4690 c3         1 LX8      -0.096600
      4 CAD          2.9440    -1.2490     1.3860 c3         1 LX8      -0.096600
      5 CAE          9.9010     7.3680     2.1300 c3         1 LX8      -0.118100
      6 CAF          9.8280     5.7960     0.1890 c3         1 LX8      -0.118100
      7 OAG         12.2760     6.7110     0.9650 o          1 LX8      -0.546000
      8 OAH          1.1360     2.6080     1.2220 o          1 LX8      -0.573500
      9 CAI          1.3100     0.0000     0.0000 c2         1 LX8      -0.149200
     10 CAJ          6.4710     2.2780     1.7130 ca         1 LX8      -0.028000
     11 CAK          5.1790     4.7430     1.5820 ca         1 LX8      -0.171000
     12 CAL          4.2770     1.1090     1.5090 cc         1 LX8      -0.030200
     13 CAM          8.6760     3.6930     1.9300 c3         1 LX8      -0.054100
     14 OAN         11.1280     5.2650     2.1780 os         1 LX8      -0.433900
     15 OAO          7.4730     5.6880     1.7740 os         1 LX8      -0.301900
     16 OAP          3.0860     3.6300     1.3970 os         1 LX8      -0.301200
     17 CAQ         12.2860     5.7720     1.7250 c          1 LX8       0.637100
     18 CAR          7.1880     3.4320     1.7780 ca         1 LX8      -0.195300
     19 CAS          6.5620     4.6780     1.7080 ca         1 LX8       0.169100
     20 CAT          2.9300     1.2310     1.3850 cd         1 LX8      -0.217400
     21 CAU          2.3450     2.5130     1.3320 c          1 LX8       0.750800
     22 CAV          5.0780     2.3320     1.5820 ca         1 LX8      -0.183800
     23 CAW          4.4300     3.5790     1.5190 ca         1 LX8       0.196100
     24 CAX          8.6990     5.1870     2.3320 c3         1 LX8       0.151100
     25 CAY          2.0640     0.0000     1.3050 c3         1 LX8       0.047400
     26 CAZ          9.9050     5.8950     1.7140 c3         1 LX8       0.165800
     27 HAA         -0.3970    -0.8860     0.4800 ha         1 LX8       0.116000
     28 HAAA        -0.3970     0.5180     0.8650 ha         1 LX8       0.116000
     29 HAB         14.3990     5.5750     1.5610 hc         1 LX8       0.070367
     30 HABA        13.5570     4.0940     2.0390 hc         1 LX8       0.070367
     31 HABB        13.7700     5.4060     3.2060 hc         1 LX8       0.070367
     32 HAC          0.3990     0.8450     2.3710 hc         1 LX8       0.048200
     33 HACA         1.6100     0.0750     3.4050 hc         1 LX8       0.048200
     34 HACB         0.4970    -0.9200     2.4550 hc         1 LX8       0.048200
     35 HAD          3.6260    -1.2650     0.5450 hc         1 LX8       0.048200
     36 HADA         2.3180    -2.1330     1.3600 hc         1 LX8       0.048200
     37 HADB         3.5090    -1.2340     2.3100 hc         1 LX8       0.048200
     38 HAE         10.4880     7.9440     1.4250 hc         1 LX8       0.058200
     39 HAEA        10.3280     7.4650     3.1200 hc         1 LX8       0.058200
     40 HAEB         8.8820     7.7370     2.1380 hc         1 LX8       0.058200
     41 HAF         10.2620     4.8570    -0.1350 hc         1 LX8       0.058200
     42 HAFA         8.7920     5.8410    -0.1240 hc         1 LX8       0.058200
     43 HAFB        10.3760     6.6180    -0.2550 hc         1 LX8       0.058200
     44 HAI          1.6440    -1.0300    -0.0410 ha         1 LX8       0.082000
     45 HAJ          6.9650     1.3240     1.8560 ha         1 LX8       0.140000
     46 HAK          4.6860     5.7060     1.5330 ha         1 LX8       0.164000
     47 HAL          4.7460     0.1330     1.5520 ha         1 LX8       0.151000
     48 HAM          9.0960     3.0760     2.7150 hc         1 LX8       0.072700
     49 HAMA         9.1910     3.5390     0.9890 hc         1 LX8       0.072700
     50 HAX          8.6960     5.2910     3.4110 h1         1 LX8       0.075700
@<TRIPOS>BOND
     1     1     9 2
     2     2    17 1
     3     3    25 1
     4     4    25 1
     5     5    26 1
     6     6    26 1
     7     7    17 2
     8     8    21 2
     9     9    25 1
    10    10    18 ar
    11    10    22 ar
    12    11    19 ar
    13    11    23 ar
    14    12    20 2
    15    12    22 1
    16    13    18 1
    17    13    24 1
    18    14    17 1
    19    14    26 1
    20    15    19 1
    21    15    24 1
    22    16    21 1
    23    16    23 1
    24    18    19 ar
    25    20    21 1
    26    20    25 1
    27    22    23 ar
    28    24    26 1
    29     1    27 1
    30     1    28 1
    31     2    29 1
    32     2    30 1
    33     2    31 1
    34     3    32 1
    35     3    33 1
    36     3    34 1
    37     4    35 1
    38     4    36 1
    39     4    37 1
    40     5    38 1
    41     5    39 1
    42     5    40 1
    43     6    41 1
    44     6    42 1
    45     6    43 1
    46     9    44 1
    47    10    45 1
    48    11    46 1
    49    12    47 1
    50    13    48 1
    51    13    49 1
    52    24    50 1
@<TRIPOS>SUBSTRUCTURE
     1 LX8         1 TEMP              0 ****  ****    0 ROOT
