@<TRIPOS>MOLECULE
molecule
   53    58     1     0     0
SMALL
bcc


@<TRIPOS>ATOM
      1 N1           0.0000     0.0000     0.0000 na         1 LX9       0.160300
      2 N2           1.4000     0.0000     0.0000 nc         1 LX9      -0.531800
      3 C3           1.8170     0.0000     1.2430 cd         1 LX9       0.617200
      4 C4           0.6770    -0.0010     2.0850 cd         1 LX9      -0.280300
      5 C5          -0.4260    -0.0000     1.2800 cc         1 LX9      -0.087300
      6 C7           0.6820    -0.0020     3.5660 ca         1 LX9       0.036000
      7 C8           1.4670    -0.9260     4.2590 ca         1 LX9      -0.121000
      8 C10          1.4730    -0.9280     5.6230 ca         1 LX9      -0.057300
      9 C11          0.6930    -0.0050     6.3300 ca         1 LX9      -0.152600
     10 C12         -0.0930     0.9200     5.6430 ca         1 LX9      -0.063000
     11 C14         -0.0930     0.9250     4.2660 ca         1 LX9      -0.145000
     12 C16          0.7220    -0.0320     7.8060 c          1 LX9       0.719100
     13 N17          1.7330    -0.6690     8.4310 ns         1 LX9      -0.585900
     14 C19          2.8250    -1.2780     7.6760 c3         1 LX9       0.109000
     15 C22          2.3100    -1.9180     6.3890 c3         1 LX9      -0.057100
     16 O25         -0.1540     0.5130     8.4490 o          1 LX9      -0.645500
     17 N26          3.1480    -0.0000     1.6630 nv         1 LX9      -1.053500
     18 C29         -0.8200     0.0050    -1.1370 ca         1 LX9       0.041800
     19 C30         -0.2550    -0.1050    -2.3990 ca         1 LX9      -0.122000
     20 C32         -1.0730    -0.1000    -3.5260 cp         1 LX9      -0.006000
     21 C33         -2.4560     0.0170    -3.3790 ca         1 LX9      -0.137000
     22 C35         -3.0090     0.1270    -2.1180 ca         1 LX9      -0.103000
     23 C37         -2.1980     0.1160    -0.9990 ca         1 LX9      -0.162000
     24 C39         -0.4770    -0.2170    -4.8780 cp         1 LX9      -0.023000
     25 C40         -1.3000    -0.2120    -5.9980 ca         1 LX9      -0.131000
     26 C42         -0.7390    -0.3210    -7.2630 ca         1 LX9      -0.040200
     27 N43         -1.2680    -0.3460    -8.5350 na         1 LX9      -0.184400
     28 C45         -0.2640    -0.4730    -9.4550 cd         1 LX9      -0.099100
     29 C47          0.9240    -0.5330    -8.8310 cc         1 LX9      -0.199200
     30 C49          0.6580    -0.4370    -7.3940 ca         1 LX9      -0.098800
     31 C50          1.4710    -0.4410    -6.2580 ca         1 LX9      -0.078000
     32 C52          0.9100    -0.3280    -5.0190 ca         1 LX9      -0.144000
     33 H5          -1.4580    -0.0010     1.6110 h4         1 LX9       0.179000
     34 H8           2.0320    -1.6720     3.7140 ha         1 LX9       0.139000
     35 H12         -0.6930     1.6370     6.1900 ha         1 LX9       0.154000
     36 H14         -0.6500     1.6820     3.7270 ha         1 LX9       0.137000
     37 HN17         1.7350    -0.7250     9.4300 hn         1 LX9       0.327500
     38 H19          3.2760    -2.0500     8.2880 h1         1 LX9       0.047200
     39 H19A         3.5350    -0.5030     7.4140 h1         1 LX9       0.047200
     40 H22          1.7070    -2.7830     6.6360 hc         1 LX9       0.062200
     41 H22A         3.1520    -2.2230     5.7790 hc         1 LX9       0.062200
     42 HN26         3.5610     0.8400     2.0180 hn         1 LX9       0.438800
     43 HN2A         3.7040    -0.8260     1.5630 hn         1 LX9       0.438800
     44 H30          0.8190    -0.1950    -2.5080 ha         1 LX9       0.165000
     45 H33         -3.0950     0.0230    -4.2530 ha         1 LX9       0.136000
     46 H35         -4.0830     0.2160    -2.0060 ha         1 LX9       0.136000
     47 H37         -2.6370     0.2030    -0.0130 ha         1 LX9       0.134000
     48 H40         -2.3760    -0.2320    -5.8790 ha         1 LX9       0.129000
     49 H45         -0.4050    -0.5180   -10.5280 h4         1 LX9       0.165000
     50 H47          1.8950    -0.6340    -9.3010 ha         1 LX9       0.156000
     51 H50          2.5460    -0.5270    -6.3600 ha         1 LX9       0.133000
     52 H52          1.5430    -0.3250    -4.1400 ha         1 LX9       0.138000
     53 HN43        -2.2430    -0.2810    -8.7530 hn         1 LX9       0.295700
@<TRIPOS>BOND
     1     2     1 1
     2    18     1 1
     3     1     5 1
     4     2     3 2
     5    17     3 1
     6     3     4 1
     7     5     4 2
     8     4     6 1
     9     5    33 1
    10     6    11 ar
    11     6     7 ar
    12     7     8 ar
    13     7    34 1
    14     8     9 ar
    15     8    15 1
    16    10     9 ar
    17     9    12 1
    18    11    10 ar
    19    10    35 1
    20    11    36 1
    21    12    16 2
    22    12    13 1
    23    14    13 1
    24    13    37 1
    25    15    14 1
    26    14    38 1
    27    14    39 1
    28    15    40 1
    29    15    41 1
    30    17    42 1
    31    17    43 1
    32    19    18 ar
    33    18    23 ar
    34    20    19 ar
    35    19    44 1
    36    24    20 1
    37    20    21 ar
    38    21    22 ar
    39    21    45 1
    40    22    23 ar
    41    22    46 1
    42    23    47 1
    43    32    24 ar
    44    25    24 ar
    45    26    25 ar
    46    25    48 1
    47    30    26 ar
    48    27    26 1
    49    28    27 1
    50    29    28 2
    51    28    49 1
    52    29    30 1
    53    29    50 1
    54    30    31 ar
    55    31    32 ar
    56    31    51 1
    57    32    52 1
    58    27    53 1
@<TRIPOS>SUBSTRUCTURE
     1 LX9         1 TEMP              0 ****  ****    0 ROOT
