@<TRIPOS>MOLECULE
molecule
   20    20     1     0     0
SMALL
bcc


@<TRIPOS>ATOM
      1 C5           0.0000     0.0000     0.0000 c3         1 LXC       0.113400
      2 O5           1.4250     0.0000     0.0000 os         1 LXC      -0.421600
      3 C1           1.8570     0.0000     1.3590 c3         1 LXC       0.323900
      4 O1           3.2730     0.1790     1.4080 oh         1 LXC      -0.579800
      5 C2           1.4910    -1.3300     2.0200 c3         1 LXC       0.119100
      6 O2           1.9510    -1.3360     3.3720 oh         1 LXC      -0.593800
      7 C3          -0.0310    -1.5020     1.9920 c3         1 LXC       0.134100
      8 O3          -0.3770    -2.8020     2.4710 oh         1 LXC      -0.597800
      9 C4          -0.5190    -1.3310     0.5490 c3         1 LXC       0.100100
     10 O4          -1.9470    -1.3360     0.5230 oh         1 LXC      -0.598800
     11 H5C1        -0.3580     0.1340    -1.0130 h1         1 LXC       0.059700
     12 H5C2        -0.3590     0.8100     0.6240 h1         1 LXC       0.059700
     13 H1           1.3690     0.8090     1.8900 h2         1 LXC       0.035700
     14 HA           3.4800     1.0900     1.2770 ho         1 LXC       0.414000
     15 H2           1.9540    -2.1430     1.4720 h1         1 LXC       0.069700
     16 HB           2.5710    -2.0360     3.4890 ho         1 LXC       0.417000
     17 H3          -0.4900    -0.7470     2.6190 h1         1 LXC       0.058700
     18 HC          -0.9340    -2.7210     3.2270 ho         1 LXC       0.415000
     19 H4          -0.1390    -2.1430    -0.0580 h1         1 LXC       0.060700
     20 HD          -2.2470    -1.8780    -0.1880 ho         1 LXC       0.411000
@<TRIPOS>BOND
     1     1     2 1
     2     1     9 1
     3     1    11 1
     4     1    12 1
     5     2     3 1
     6     3     4 1
     7     3     5 1
     8     3    13 1
     9     4    14 1
    10     5     6 1
    11     5     7 1
    12     5    15 1
    13     6    16 1
    14     7     8 1
    15     7     9 1
    16     7    17 1
    17     8    18 1
    18     9    10 1
    19     9    19 1
    20    10    20 1
@<TRIPOS>SUBSTRUCTURE
     1 LXC         1 TEMP              0 ****  ****    0 ROOT
