@<TRIPOS>MOLECULE
LXC
   20    20     1     0     0
SMALL
bcc


@<TRIPOS>ATOM
      1 C5         -0.0040    0.1800    0.0330 c3        1 LXC      0.138400
      2 O5          1.3990    0.2910    0.2380 os        1 LXC     -0.445600
      3 C1          1.7980    0.0660    1.5820 c3        1 LXC      0.308900
      4 O1          3.1930    0.1980    1.5280 oh        1 LXC     -0.597800
      5 C2          1.3870   -1.3440    2.0560 c3        1 LXC      0.053100
      6 O2          1.6530   -1.5030    3.4380 oh        1 LXC     -0.601800
      7 C3         -0.1240   -1.5320    1.8730 c3        1 LXC      0.108100
      8 O3         -0.5050   -2.8770    2.1060 oh        1 LXC     -0.606800
      9 C4         -0.5060   -1.2160    0.4150 c3        1 LXC      0.114100
     10 O4         -1.9130   -1.1980    0.2620 oh        1 LXC     -0.593800
     11 H5C1       -0.5450    0.9640    0.6240 h1        1 LXC      0.071200
     12 H5C2       -0.1400    0.3620   -1.0650 h1        1 LXC      0.071200
     13 H1          1.4160    0.8630    2.2770 h2        1 LXC      0.086700
     14 HA          3.4980   -0.1540    0.6790 ho        1 LXC      0.429000
     15 H2          1.9480   -2.1240    1.4710 h1        1 LXC      0.061700
     16 HB          2.5780   -1.2540    3.5710 ho        1 LXC      0.424000
     17 H3         -0.6830   -0.8560    2.5790 h1        1 LXC      0.064700
     18 HC         -0.1930   -3.1020    2.9930 ho        1 LXC      0.427000
     19 H4         -0.0570   -1.9950   -0.2610 h1        1 LXC      0.060700
     20 HD         -2.2320   -2.0550    0.5790 ho        1 LXC      0.425000
@<TRIPOS>BOND
     1    1    2 1   
     2    1    9 1   
     3    1   11 1   
     4    1   12 1   
     5    2    3 1   
     6    3    4 1   
     7    3    5 1   
     8    3   13 1   
     9    4   14 1   
    10    5    6 1   
    11    5    7 1   
    12    5   15 1   
    13    6   16 1   
    14    7    8 1   
    15    7    9 1   
    16    7   17 1   
    17    8   18 1   
    18    9   10 1   
    19    9   19 1   
    20   10   20 1   
@<TRIPOS>SUBSTRUCTURE
     1 LXC         1 TEMP              0 ****  ****    0 ROOT
