@<TRIPOS>MOLECULE
molecule
   42    45     1     0     0
SMALL
bcc


@<TRIPOS>ATOM
      1 C1           0.0000     0.0000     0.0000 c3         1 LXG       0.155600
      2 N1           1.4690     0.0000     0.0000 n3         1 LXG      -0.706600
      3 O1           2.0690    -2.6410    -5.2190 o          1 LXG      -0.635500
      4 S1           0.4190    -0.1900    -6.4260 ss         1 LXG       0.006500
      5 C2           1.9950     0.0000     1.3720 c3         1 LXG       0.155600
      6 N2           0.9610     0.0700    -2.5880 nc         1 LXG      -0.609300
      7 C3           1.9960    -1.1390    -0.7650 c3         1 LXG       0.131500
      8 N3           2.0310    -1.9230    -3.1070 ns         1 LXG      -0.455400
      9 C4           1.6370    -0.9740    -2.2200 cd         1 LXG       0.486900
     10 C5           0.6080     0.2750    -3.8850 cc         1 LXG       0.219400
     11 C6          -0.1510     1.3980    -4.4540 ca         1 LXG      -0.067800
     12 C7          -0.6820     2.5160    -3.7820 ca         1 LXG      -0.056000
     13 C8          -1.3740     3.4860    -4.4890 ca         1 LXG      -0.067800
     14 C9          -1.9310     4.6590    -3.7830 ce         1 LXG      -0.116200
     15 C10         -2.5940     5.5870    -4.4590 c2         1 LXG      -0.129200
     16 C11         -3.1610     6.7820    -3.7380 cx         1 LXG      -0.105500
     17 C12         -2.6690     8.1660    -4.1710 cx         1 LXG      -0.131900
     18 C13         -4.0860     7.7100    -4.5290 cx         1 LXG      -0.131900
     19 C14         -1.5480     3.3540    -5.8720 ca         1 LXG      -0.100000
     20 C15         -1.0370     2.2750    -6.5270 ca         1 LXG      -0.104000
     21 C16         -0.3320     1.2820    -5.8300 ca         1 LXG      -0.012100
     22 C17          0.9800    -0.6550    -4.8300 cd         1 LXG      -0.193600
     23 C18          1.7200    -1.7960    -4.4120 c          1 LXG       0.726700
     24 H1          -0.3610    -0.1250     1.0140 h1         1 LXG       0.035700
     25 H1A         -0.3610     0.9400    -0.3980 h1         1 LXG       0.035700
     26 H1B         -0.3610    -0.8150    -0.6150 h1         1 LXG       0.035700
     27 H2           1.5760     0.8360     1.9190 h1         1 LXG       0.035700
     28 H2A          3.0740     0.0900     1.3460 h1         1 LXG       0.035700
     29 H2B          1.7220    -0.9260     1.8630 h1         1 LXG       0.035700
     30 H3           3.0730    -1.1760    -0.6610 h1         1 LXG       0.053700
     31 H3A          1.5640    -2.0580    -0.3880 h1         1 LXG       0.053700
     32 HN3          2.5510    -2.7180    -2.7910 hn         1 LXG       0.340500
     33 H7          -0.5270     2.6310    -2.7160 ha         1 LXG       0.152000
     34 H9          -1.7970     4.7600    -2.7130 ha         1 LXG       0.135000
     35 H10         -2.7280     5.4850    -5.5290 ha         1 LXG       0.129000
     36 H11         -3.3990     6.6950    -2.6850 hc         1 LXG       0.085700
     37 H12         -2.6020     8.9060    -3.3820 hc         1 LXG       0.075450
     38 H12A        -1.9600     8.1750    -4.9900 hc         1 LXG       0.075450
     39 H13         -4.2420     7.4410    -5.5670 hc         1 LXG       0.075450
     40 H13A        -4.8840     8.1710    -3.9600 hc         1 LXG       0.075450
     41 H14         -2.0890     4.1140    -6.4230 ha         1 LXG       0.138000
     42 H15         -1.1760     2.1820    -7.5970 ha         1 LXG       0.137000
@<TRIPOS>BOND
     1     2     1 1
     2     1    24 1
     3     1    25 1
     4     1    26 1
     5     5     2 1
     6     2     7 1
     7    23     3 2
     8    22     4 1
     9    21     4 1
    10     5    27 1
    11     5    28 1
    12     5    29 1
    13     6     9 2
    14     6    10 1
    15     7     9 1
    16     7    30 1
    17     7    31 1
    18     9     8 1
    19     8    23 1
    20     8    32 1
    21    10    11 1
    22    10    22 2
    23    12    11 ar
    24    11    21 ar
    25    12    13 ar
    26    12    33 1
    27    14    13 1
    28    13    19 ar
    29    15    14 2
    30    14    34 1
    31    16    15 1
    32    15    35 1
    33    18    16 1
    34    17    16 1
    35    16    36 1
    36    18    17 1
    37    17    37 1
    38    17    38 1
    39    18    39 1
    40    18    40 1
    41    19    20 ar
    42    19    41 1
    43    21    20 ar
    44    20    42 1
    45    22    23 1
@<TRIPOS>SUBSTRUCTURE
     1 LXG         1 TEMP              0 ****  ****    0 ROOT
