@<TRIPOS>MOLECULE
LXG
   42    47     1     0     0
SMALL
bcc


@<TRIPOS>ATOM
      1 C1           0.0000     0.0000     0.0000 c3         1 LXG      -0.094500
      2 N1           1.4690     0.0000     0.0000 n3         1 LXG      -0.043000
      3 O1           2.0690    -2.6410    -5.2190 o          1 LXG      -0.396000
      4 S1           0.4190    -0.1900    -6.4260 ss         1 LXG       0.332000
      5 C2           1.9950     0.0000     1.3720 c3         1 LXG      -0.094500
      6 N2           0.9610     0.0700    -2.5880 n2         1 LXG      -0.063000
      7 C3           1.9960    -1.1390    -0.7650 c3         1 LXG      -0.034000
      8 N3           2.0310    -1.9230    -3.1070 ns         1 LXG       0.183000
      9 C4           1.6370    -0.9740    -2.2200 c2         1 LXG      -0.103000
     10 C5           0.6080     0.2750    -3.8850 c2         1 LXG       0.024000
     11 C6          -0.1510     1.3980    -4.4540 c2         1 LXG      -0.021000
     12 C7          -0.6820     2.5160    -3.7820 c2         1 LXG      -0.124000
     13 C8          -1.3740     3.4860    -4.4890 c3         1 LXG       0.017000
     14 C9          -1.9310     4.6590    -3.7830 c2         1 LXG      -0.021000
     15 C10         -2.5940     5.5870    -4.4590 c2         1 LXG      -0.107000
     16 C11         -3.1610     6.7820    -3.7380 DU         1 LXG      -0.034000
     17 C12         -2.6690     8.1660    -4.1710 cx         1 LXG      -0.176500
     18 C13         -4.0860     7.7100    -4.5290 cx         1 LXG      -0.176500
     19 C14         -1.5480     3.3540    -5.8720 c2         1 LXG      -0.137000
     20 C15         -1.0370     2.2750    -6.5270 c2         1 LXG      -0.029000
     21 C16         -0.3320     1.2820    -5.8300 c2         1 LXG      -0.230000
     22 C17          0.9800    -0.6550    -4.8300 c2         1 LXG      -0.358000
     23 C18          1.7200    -1.7960    -4.4120 c2         1 LXG       0.269000
     24 H1          -0.3610     0.9400    -0.3990 h1         1 LXG       0.043333
     25 H1A         -0.3610    -0.8160    -0.6150 h1         1 LXG       0.043333
     26 H1B         -0.3610    -0.1250     1.0140 h1         1 LXG       0.043333
     27 H2           1.5570     0.8220     1.9270 h1         1 LXG       0.043333
     28 H2A          1.7430    -0.9360     1.8550 h1         1 LXG       0.043333
     29 H2B          3.0720     0.1150     1.3470 h1         1 LXG       0.043333
     30 H3           1.5640    -2.0580    -0.3880 h1         1 LXG       0.059000
     31 H3A          3.0730    -1.1760    -0.6610 h1         1 LXG       0.059000
     32 HN3          2.5510    -2.7180    -2.7910 hn         1 LXG       0.096000
     33 H7          -0.5390     2.6240    -2.7140 ha         1 LXG       0.131000
     34 H9          -2.5130     3.8020    -4.1000 DU         1 LXG       0.064000
     35 H10         -3.5050     5.5720    -3.8730 DU         1 LXG       0.040000
     36 H11         -3.3990     6.6950    -2.6850 ha         1 LXG       0.110000
     37 H12         -1.9600     8.1750    -4.9900 hc         1 LXG       0.090000
     38 H12A        -2.6020     8.9060    -3.3820 hc         1 LXG       0.090000
     39 H13         -4.8840     8.1710    -3.9600 hc         1 LXG       0.090000
     40 H13A        -4.2420     7.4410    -5.5670 hc         1 LXG       0.090000
     41 H14         -2.0890     4.1140    -6.4230 ha         1 LXG       0.124000
     42 H15         -1.1760     2.1820    -7.5970 ha         1 LXG       0.113000
@<TRIPOS>BOND
     1     1     2 1   
     2     1    24 1   
     3     1    25 1   
     4     1    26 1   
     5     2     5 1   
     6     2     7 1   
     7     3    23 1   
     8     4    21 1   
     9     4    22 1   
    10     5    27 1   
    11     5    28 1   
    12     5    29 1   
    13     6     9 1   
    14     6    10 1   
    15     7     9 1   
    16     7    30 1   
    17     7    31 1   
    18     8     9 1   
    19     8    23 1   
    20     8    32 1   
    21    10    11 1   
    22    10    22 1   
    23    11    12 1   
    24    11    21 1   
    25    12    13 1   
    26    12    33 1   
    27    13    14 1   
    28    13    19 1   
    29    13    34 1   
    30    14    15 1   
    31    14    34 1   
    32    15    16 1   
    33    15    35 1   
    34    16    17 1   
    35    16    18 1   
    36    16    35 1   
    37    16    36 1   
    38    17    18 1   
    39    17    37 1   
    40    17    38 1   
    41    18    39 1   
    42    18    40 1   
    43    19    20 1   
    44    19    41 1   
    45    20    21 1   
    46    20    42 1   
    47    22    23 1   
@<TRIPOS>SUBSTRUCTURE
     1 LXG         1 TEMP              0 ****  ****    0 ROOT
