@<TRIPOS>MOLECULE
LXL
   62    64     1     0     0
SMALL
bcc


@<TRIPOS>ATOM
      1 C11          0.0000     0.0000     0.0000 c3         1 LXL      -0.009100
      2 C10          1.5300     0.0000     0.0000 c3         1 LXL       0.067000
      3 N9           2.0170     0.0000     1.3820 ns         1 LXL      -0.223900
      4 C8           3.3430    -0.0000     1.6290 c          1 LXL       0.564100
      5 O32          4.1330    -0.0000     0.7050 o          1 LXL      -0.697100
      6 N7           3.7910    -0.0010     2.9000 ns         1 LXL      -0.032100
      7 C6           5.1600    -0.1190     3.1580 ca         1 LXL      -0.086400
      8 C5           5.6900     0.3750     4.3500 ca         1 LXL       0.094100
      9 C4           7.0430     0.2570     4.6050 ca         1 LXL      -0.149000
     10 O12          4.8760     0.9730     5.2600 os         1 LXL      -0.324900
     11 C13          5.4870     1.4570     6.4590 c3         1 LXL       0.247700
     12 C1           5.9900    -0.7340     2.2310 ca         1 LXL      -0.108000
     13 C2           7.3410    -0.8540     2.4820 ca         1 LXL      -0.084000
     14 C3           7.8770    -0.3560     3.6690 cp         1 LXL      -0.144500
     15 C14          9.3280    -0.4850     3.9400 cp         1 LXL       0.708500
     16 N19         10.1060    -1.0670     3.0360 nb         1 LXL      -0.691000
     17 N15          9.8180    -0.0100     5.0770 nb         1 LXL      -0.681000
     18 C16         11.1100    -0.1060     5.3540 ca         1 LXL       0.487200
     19 C17         11.9540    -0.7100     4.4420 ca         1 LXL      -0.422900
     20 C20         13.4290    -0.8370     4.7240 c3         1 LXL       0.087200
     21 C18         11.4100    -1.1960     3.2500 ca         1 LXL       0.557200
     22 N21         12.2200    -1.8040     2.3040 nu         1 LXL      -0.506900
     23 C22         11.6380    -2.3100     1.0590 c3         1 LXL       0.198800
     24 C29         11.5510    -1.1740     0.0380 c3         1 LXL      -0.040400
     25 C30         10.5710    -0.1110     0.5410 c3         1 LXL      -0.051400
     26 C31         10.4840     1.0250    -0.4800 c3         1 LXL       0.006900
     27 C23         12.5080    -3.4130     0.5100 ca         1 LXL      -0.224600
     28 C24         11.9350    -4.5400    -0.0600 ca         1 LXL      -0.052000
     29 C25         12.7740    -5.5280    -0.5520 ca         1 LXL      -0.217300
     30 C26         14.1430    -5.3580    -0.4580 ca         1 LXL       0.404200
     31 N27         14.6510    -4.2730     0.0910 nb         1 LXL      -0.576000
     32 C28         13.8840    -3.3100     0.5640 ca         1 LXL       0.399200
     33 H1          -0.3610     0.8870     0.5070 hc         1 LXL       0.007367
     34 H2          -0.3610    -0.8820     0.5140 hc         1 LXL       0.007367
     35 H3          -0.3610    -0.0040    -1.0210 hc         1 LXL       0.007367
     36 H4           1.8910    -0.8850    -0.5100 h1         1 LXL       0.024200
     37 H5           1.8910     0.8850    -0.5100 h1         1 LXL       0.024200
     38 H6           1.3660     0.0140     2.1420 hn         1 LXL       0.168500
     39 H7           3.1410     0.0400     3.6600 hn         1 LXL       0.166500
     40 H8           7.4560     0.6430     5.5290 ha         1 LXL       0.141000
     41 H9           4.7320     1.9060     7.0920 h1         1 LXL      -0.000967
     42 H10          5.9540     0.6320     6.9830 h1         1 LXL      -0.000967
     43 H11          6.2360     2.1980     6.2090 h1         1 LXL      -0.000967
     44 H12          5.5760    -1.1220     1.3080 ha         1 LXL       0.161000
     45 H13          7.9870    -1.3320     1.7560 ha         1 LXL       0.125000
     46 H14         11.5000     0.2850     6.2860 h4         1 LXL      -0.017900
     47 H15         13.7200    -1.8790     4.6680 hc         1 LXL       0.006033
     48 H16         13.9870    -0.2660     3.9920 hc         1 LXL       0.006033
     49 H17         13.6410    -0.4570     5.7160 hc         1 LXL       0.006033
     50 H18         13.2000    -1.9070     2.4770 hn         1 LXL       0.307800
     51 H19         10.6450    -2.6960     1.2550 h1         1 LXL       0.061700
     52 H20         12.5300    -0.7290    -0.0920 hc         1 LXL       0.020700
     53 H21         11.2040    -1.5670    -0.9100 hc         1 LXL       0.020700
     54 H22          9.5910    -0.5560     0.6700 hc         1 LXL       0.032700
     55 H23         10.9180     0.2810     1.4890 hc         1 LXL       0.032700
     56 H24         11.4600     1.4790    -0.5990 hc         1 LXL       0.000367
     57 H25          9.7790     1.7700    -0.1320 hc         1 LXL       0.000367
     58 H26         10.1510     0.6300    -1.4330 hc         1 LXL       0.000367
     59 H27         10.8580    -4.6450    -0.1200 ha         1 LXL       0.116000
     60 H28         12.3620    -6.4220    -1.0040 ha         1 LXL       0.115000
     61 H29         14.8050    -6.1270    -0.8380 h4         1 LXL      -0.018900
     62 H30         14.3390    -2.4330     1.0080 h4         1 LXL      -0.019900
@<TRIPOS>BOND
     1     1     2 1   
     2     1    33 1   
     3     1    34 1   
     4     1    35 1   
     5     2     3 1   
     6     2    36 1   
     7     2    37 1   
     8     3     4 1   
     9     3    38 1   
    10     4     5 2   
    11     4     6 1   
    12     6     7 1   
    13     6    39 1   
    14     7     8 ar  
    15     7    12 ar  
    16     8     9 ar  
    17     8    10 1   
    18     9    14 ar  
    19     9    40 1   
    20    10    11 1   
    21    11    41 1   
    22    11    42 1   
    23    11    43 1   
    24    12    13 ar  
    25    12    44 1   
    26    13    14 ar  
    27    13    45 1   
    28    14    15 1   
    29    15    16 ar  
    30    15    17 ar  
    31    16    21 ar  
    32    17    18 ar  
    33    18    19 ar  
    34    18    46 1   
    35    19    20 1   
    36    19    21 ar  
    37    20    47 1   
    38    20    48 1   
    39    20    49 1   
    40    21    22 1   
    41    22    23 1   
    42    22    50 1   
    43    23    24 1   
    44    23    27 1   
    45    23    51 1   
    46    24    25 1   
    47    24    52 1   
    48    24    53 1   
    49    25    26 1   
    50    25    54 1   
    51    25    55 1   
    52    26    56 1   
    53    26    57 1   
    54    26    58 1   
    55    27    28 ar  
    56    27    32 ar  
    57    28    29 ar  
    58    28    59 1   
    59    29    30 ar  
    60    29    60 1   
    61    30    31 ar  
    62    30    61 1   
    63    31    32 ar  
    64    32    62 1   
@<TRIPOS>SUBSTRUCTURE
     1 LXL         1 TEMP              0 ****  ****    0 ROOT
