@<TRIPOS>MOLECULE
LXN
   12    12     1     0     0
SMALL
bcc


@<TRIPOS>ATOM
      1 OAB          0.0000     0.0000     0.0000 o          1 LXN      -0.562500
      2 CAH          1.2130     0.0000     0.0000 c          1 LXN       0.502500
      3 CAJ          1.9870     0.0000     1.2850 c          1 LXN       0.440100
      4 OAD          1.4350    -0.0010     2.3600 o          1 LXN      -0.389100
      5 CAI          3.4830    -0.0010     1.1670 c          1 LXN       0.502500
      6 OAC          4.1880    -0.0020     2.1540 o          1 LXN      -0.562500
      7 NAF          4.0170    -0.0000    -0.0720 ns         1 LXN      -0.144500
      8 CAG          3.2500     0.0000    -1.1700 c          1 LXN       0.595500
      9 OAA          3.8060    -0.0000    -2.2500 o          1 LXN      -0.669500
     10 NAE          1.9110    -0.0050    -1.1550 ns         1 LXN      -0.144500
     11 HAE          1.4140    -0.0050    -2.0240 hn         1 LXN       0.216500
     12 HAF          5.0120    -0.0010    -0.1730 hn         1 LXN       0.216500
@<TRIPOS>BOND
     1     1     2 2   
     2     2     3 1   
     3     2    10 1   
     4     3     4 2   
     5     3     5 1   
     6     5     6 2   
     7     5     7 1   
     8     7     8 1   
     9     7    12 1   
    10     8     9 2   
    11     8    10 1   
    12    10    11 1   
@<TRIPOS>SUBSTRUCTURE
     1 LXN         1 TEMP              0 ****  ****    0 ROOT
