@<TRIPOS>MOLECULE
molecule
   25    24     1     0     0
SMALL
bcc


@<TRIPOS>ATOM
      1 O8           0.0000     0.0000     0.0000 o          1 LXP      -0.912500
      2 P            1.6100     0.0000     0.0000 p5         1 LXP       1.158900
      3 O6           2.1030     0.0000     1.3950 o          1 LXP      -0.912500
      4 O7           2.1450    -1.3140    -0.7590 o          1 LXP      -0.912500
      5 O5           2.1470     1.3130    -0.7590 os         1 LXP      -0.543200
      6 C5           3.5740     1.2560    -0.7270 c3         1 LXP       0.139400
      7 C4           4.1510     2.4820    -1.4340 c3         1 LXP       0.140100
      8 O4           3.7060     2.5010    -2.7920 oh         1 LXP      -0.580800
      9 C3           5.6790     2.4190    -1.3990 c3         1 LXP       0.152100
     10 O3           6.1230     1.2350    -2.0610 oh         1 LXP      -0.563800
     11 C2           6.2580     3.6460    -2.1070 c3         1 LXP       0.140100
     12 O2           5.8130     3.6650    -3.4650 oh         1 LXP      -0.546800
     13 C1           7.7850     3.5840    -2.0730 c3         1 LXP       0.100400
     14 O1           8.3240     4.7300    -2.7340 oh         1 LXP      -0.622800
     15 H51          3.9110     1.2420     0.3030 h1         1 LXP       0.049200
     16 H52          3.9110     0.3570    -1.2290 h1         1 LXP       0.049200
     17 H4           3.8140     3.3810    -0.9310 h1         1 LXP       0.012700
     18 HO4          2.9120     3.0050    -2.8560 ho         1 LXP       0.393000
     19 H3           6.0160     2.4050    -0.3700 h1         1 LXP       0.032700
     20 HO3          6.6700     0.7350    -1.4780 ho         1 LXP       0.381000
     21 H2           5.9210     4.5450    -1.6050 h1         1 LXP       0.027700
     22 HO2          5.7690     4.5570    -3.7690 ho         1 LXP       0.378000
     23 H11          8.1210     2.6850    -2.5760 h1         1 LXP       0.027200
     24 H12          8.1220     3.5690    -1.0430 h1         1 LXP       0.027200
     25 HO1          9.2530     4.7720    -2.5820 ho         1 LXP       0.384000
@<TRIPOS>BOND
     1     1     2 1
     2     2     3 1
     3     2     4 1
     4     2     5 1
     5     5     6 1
     6     6     7 1
     7     6    15 1
     8     6    16 1
     9     7     8 1
    10     7     9 1
    11     7    17 1
    12     8    18 1
    13     9    10 1
    14     9    11 1
    15     9    19 1
    16    10    20 1
    17    11    12 1
    18    11    13 1
    19    11    21 1
    20    12    22 1
    21    13    14 1
    22    13    23 1
    23    13    24 1
    24    14    25 1
@<TRIPOS>SUBSTRUCTURE
     1 LXP         1 TEMP              0 ****  ****    0 ROOT
