@<TRIPOS>MOLECULE
LXP
   25    24     1     0     0
SMALL
bcc


@<TRIPOS>ATOM
      1 O8          0.6680   -0.2570   -1.2080 o         1 LXP     -0.920500
      2 P           2.0970   -0.0320   -0.8300 p5        1 LXP      1.326900
      3 O6          2.6220   -0.7180    0.3950 o         1 LXP     -0.920500
      4 O7          3.0980    0.0890   -1.9700 o         1 LXP     -0.920500
      5 O5          2.1740    1.6540   -0.3940 os        1 LXP     -0.562200
      6 C5          3.4270    2.0520   -0.0120 c3        1 LXP      0.202400
      7 C4          4.1330    2.9010   -1.1050 c3        1 LXP      0.096100
      8 O4          3.5130    2.8230   -2.3670 oh        1 LXP     -0.668800
      9 C3          5.6040    2.4590   -1.2530 c3        1 LXP      0.110100
     10 O3          5.7470    1.2680   -1.9940 oh        1 LXP     -0.671800
     11 C2          6.4260    3.5380   -1.9850 c3        1 LXP      0.110100
     12 O2          6.0320    3.7050   -3.3380 oh        1 LXP     -0.650800
     13 C1          7.9130    3.1670   -1.9790 c3        1 LXP      0.113400
     14 O1          8.6840    4.0490   -2.7810 oh        1 LXP     -0.643800
     15 H51         4.0700    1.1570    0.2350 h1        1 LXP     -0.004800
     16 H52         3.3550    2.7060    0.9070 h1        1 LXP     -0.004800
     17 H4          4.1110    3.9910   -0.8230 h1        1 LXP      0.008700
     18 HO4         3.0320    1.9570   -2.3990 ho        1 LXP      0.489000
     19 H3          6.0580    2.3020   -0.2340 h1        1 LXP      0.016700
     20 HO3         4.8750    0.8000   -2.0190 ho        1 LXP      0.508000
     21 H2          6.2840    4.5370   -1.4870 h1        1 LXP      0.029700
     22 HO2         5.3230    3.0620   -3.5100 ho        1 LXP      0.458000
     23 H11         8.0390    2.1170   -2.3550 h1        1 LXP      0.043200
     24 H12         8.3380    3.2590   -0.9470 h1        1 LXP      0.043200
     25 HO1         8.1790    4.1930   -3.5920 ho        1 LXP      0.413000
@<TRIPOS>BOND
     1    1    2 1   
     2    2    3 1   
     3    2    4 1   
     4    2    5 1   
     5    5    6 1   
     6    6    7 1   
     7    6   15 1   
     8    6   16 1   
     9    7    8 1   
    10    7    9 1   
    11    7   17 1   
    12    8   18 1   
    13    9   10 1   
    14    9   11 1   
    15    9   19 1   
    16   10   20 1   
    17   11   12 1   
    18   11   13 1   
    19   11   21 1   
    20   12   22 1   
    21   13   14 1   
    22   13   23 1   
    23   13   24 1   
    24   14   25 1   
@<TRIPOS>SUBSTRUCTURE
     1 LXP         1 TEMP              0 ****  ****    0 ROOT
