@<TRIPOS>MOLECULE
molecule
   90    93     1     0     0
SMALL
bcc


@<TRIPOS>ATOM
      1 C1           1.5070     0.0000     0.0000 c3         1 LXT       0.035700
      2 N2           1.9960     0.0000     1.3810 ns         1 LXT      -0.521900
      3 C3           2.0160    -1.2510    -0.7210 c3         1 LXT      -0.092400
      4 C4           0.0000     0.0000     0.0000 c          1 LXT       0.655100
      5 N5          -0.6740     0.0010    -1.1680 ns         1 LXT      -0.545900
      6 O6          -0.6070     0.0010     1.0500 o          1 LXT      -0.624100
      7 C7          -2.1380     0.0010    -1.1670 c3         1 LXT       0.037700
      8 C8          -2.6480     1.4380    -1.0420 c3         1 LXT      -0.090400
      9 C9          -2.6410    -0.6000    -2.4550 c          1 LXT       0.649100
     10 O10         -1.8530    -0.9900    -3.2900 o          1 LXT      -0.615100
     11 N11         -3.9670    -0.7030    -2.6790 ns         1 LXT      -0.570900
     12 C12         -4.4550    -1.2870    -3.9300 c3         1 LXT       0.162300
     13 C13         -5.9620    -1.2860    -3.9300 ca         1 LXT      -0.136300
     14 C14         -6.6540    -2.3680    -3.4180 ca         1 LXT      -0.107500
     15 C15         -8.0360    -2.3670    -3.4190 ca         1 LXT      -0.129500
     16 C16         -8.7270    -1.2840    -3.9290 ca         1 LXT      -0.065300
     17 C17         -8.0360    -0.2020    -4.4400 ca         1 LXT      -0.129500
     18 C18         -6.6520    -0.2010    -4.4360 ca         1 LXT      -0.107500
     19 C19        -10.2340    -1.2840    -3.9290 c3         1 LXT      -0.051800
     20 C20         -2.2430     2.0060     0.3200 c3         1 LXT      -0.030100
     21 C21         -2.7450     3.4220     0.4430 ca         1 LXT      -0.081300
     22 C22         -1.9540     4.4740     0.0220 ca         1 LXT      -0.129500
     23 C23         -2.4140     5.7730     0.1360 ca         1 LXT      -0.127500
     24 C24         -3.6650     6.0190     0.6700 ca         1 LXT      -0.126000
     25 C25         -4.4570     4.9660     1.0900 ca         1 LXT      -0.127500
     26 C26         -3.9980     3.6670     0.9730 ca         1 LXT      -0.129500
     27 C27          3.5420    -1.1900    -0.8310 c3         1 LXT      -0.024100
     28 C28          4.0430    -2.4210    -1.5410 ca         1 LXT      -0.102300
     29 C29          4.1750    -2.4190    -2.9170 ca         1 LXT      -0.126000
     30 C30          4.6350    -3.5480    -3.5680 ca         1 LXT      -0.118000
     31 C31          4.9630    -4.6790    -2.8430 ca         1 LXT      -0.117000
     32 C32          4.8320    -4.6800    -1.4680 ca         1 LXT      -0.118000
     33 C33          4.3770    -3.5490    -0.8160 ca         1 LXT      -0.126000
     34 C34          3.2180     0.4920     1.6640 c          1 LXT       0.640100
     35 O35          3.9130     0.9360     0.7740 o          1 LXT      -0.605100
     36 C36          3.7200     0.4930     3.0840 c3         1 LXT       0.023500
     37 C37          3.1110     1.6740     3.8410 c3         1 LXT      -0.103400
     38 N38          5.1840     0.6120     3.0860 nz         1 LXT      -0.795600
     39 C41          3.5210     1.6040     5.3140 c3         1 LXT      -0.038100
     40 C42          2.9210     2.7680     6.0580 ca         1 LXT      -0.117300
     41 C43          1.6720     2.6470     6.6400 ca         1 LXT      -0.118500
     42 C44          1.1210     3.7150     7.3220 ca         1 LXT      -0.113000
     43 C45          1.8190     4.9050     7.4240 ca         1 LXT      -0.103000
     44 C46          3.0670     5.0260     6.8420 ca         1 LXT      -0.113000
     45 C47          3.6200     3.9560     6.1650 ca         1 LXT      -0.118500
     46 H1           1.8690     0.8840    -0.5110 h1         1 LXT       0.103700
     47 HN2          1.4240    -0.3720     2.1130 hn         1 LXT       0.348500
     48 H3           1.5840    -1.2960    -1.7130 hc         1 LXT       0.072700
     49 H3A          1.7290    -2.1320    -0.1610 hc         1 LXT       0.072700
     50 HN5         -0.1740     0.0280    -2.0340 hn         1 LXT       0.344500
     51 H7          -2.5000    -0.5840    -0.3300 h1         1 LXT       0.096700
     52 H8          -2.2150     2.0440    -1.8290 hc         1 LXT       0.060700
     53 H8A         -3.7270     1.4480    -1.1310 hc         1 LXT       0.060700
     54 HN11        -4.6170    -0.4140    -1.9750 hn         1 LXT       0.323500
     55 H12         -4.0930    -0.7020    -4.7670 h1         1 LXT       0.062700
     56 H12A        -4.0950    -2.3050    -4.0180 h1         1 LXT       0.062700
     57 H14         -6.1120    -3.2170    -3.0190 ha         1 LXT       0.133500
     58 H15         -8.5790    -3.2150    -3.0190 ha         1 LXT       0.137500
     59 H17         -8.5770     0.6480    -4.8390 ha         1 LXT       0.137500
     60 H18         -6.1100     0.6470    -4.8360 ha         1 LXT       0.133500
     61 H19        -10.5950    -0.2830    -4.1330 hc         1 LXT       0.048367
     62 H19A       -10.5950    -1.9600    -4.6940 hc         1 LXT       0.048367
     63 H19B       -10.5950    -1.6080    -2.9610 hc         1 LXT       0.048367
     64 H20         -1.1640     1.9970     0.4090 hc         1 LXT       0.055200
     65 H20A        -2.6760     1.4000     1.1070 hc         1 LXT       0.055200
     66 H22         -0.9690     4.2820    -0.3850 ha         1 LXT       0.128500
     67 H23         -1.8060     6.5960    -0.2220 ha         1 LXT       0.133000
     68 H24         -4.0260     7.0360     0.7570 ha         1 LXT       0.134000
     69 H25         -5.4370     5.1590     1.5070 ha         1 LXT       0.133000
     70 H26         -4.6980     2.9800     1.4320 ha         1 LXT       0.128500
     71 H27          3.8290    -0.3080    -1.3910 hc         1 LXT       0.042700
     72 H27A         3.9740    -1.1440     0.1610 hc         1 LXT       0.042700
     73 H29          3.9180    -1.5330    -3.4850 ha         1 LXT       0.123000
     74 H30          4.7390    -3.5480    -4.6470 ha         1 LXT       0.138000
     75 H31          5.3220    -5.5640    -3.3540 ha         1 LXT       0.140000
     76 H32          5.0910    -5.5650    -0.9000 ha         1 LXT       0.138000
     77 H33          4.2740    -3.5500     0.2620 ha         1 LXT       0.123000
     78 H36          3.4330    -0.4330     3.5680 hx         1 LXT       0.120700
     79 H37          2.0310     1.6330     3.7640 hc         1 LXT       0.098200
     80 H37A         3.4680     2.6020     3.4100 hc         1 LXT       0.098200
     81 HN38         5.4400     1.5720     2.9670 hn         1 LXT       0.462800
     82 HN3A         5.5640     0.0700     2.3350 hn         1 LXT       0.462800
     83 H41          3.1630     0.6770     5.7450 hc         1 LXT       0.042700
     84 H41A         4.6010     1.6440     5.3900 hc         1 LXT       0.042700
     85 H43          1.1250     1.7150     6.5600 ha         1 LXT       0.125500
     86 H44          0.1430     3.6200     7.7780 ha         1 LXT       0.146000
     87 H45          1.3860     5.7430     7.9570 ha         1 LXT       0.148000
     88 H46          3.6150     5.9570     6.9240 ha         1 LXT       0.146000
     89 H47          4.5980     4.0510     5.7100 ha         1 LXT       0.125500
     90 H383         5.5450     0.2860     3.9600 hn         1 LXT       0.462800
@<TRIPOS>BOND
     1     4     1 1
     2     3     1 1
     3     1     2 1
     4     1    46 1
     5     2    34 1
     6     2    47 1
     7    27     3 1
     8     3    48 1
     9     3    49 1
    10     5     4 1
    11     6     4 2
    12     7     5 1
    13     5    50 1
    14     9     7 1
    15     7     8 1
    16     7    51 1
    17    20     8 1
    18     8    52 1
    19     8    53 1
    20    11     9 1
    21    10     9 2
    22    12    11 1
    23    11    54 1
    24    12    13 1
    25    12    55 1
    26    12    56 1
    27    14    13 ar
    28    13    18 ar
    29    14    15 ar
    30    14    57 1
    31    15    16 ar
    32    15    58 1
    33    16    19 1
    34    16    17 ar
    35    18    17 ar
    36    17    59 1
    37    18    60 1
    38    19    61 1
    39    19    62 1
    40    19    63 1
    41    20    21 1
    42    20    64 1
    43    20    65 1
    44    22    21 ar
    45    21    26 ar
    46    22    23 ar
    47    22    66 1
    48    23    24 ar
    49    23    67 1
    50    24    25 ar
    51    24    68 1
    52    26    25 ar
    53    25    69 1
    54    26    70 1
    55    27    28 1
    56    27    71 1
    57    27    72 1
    58    33    28 ar
    59    28    29 ar
    60    29    30 ar
    61    29    73 1
    62    31    30 ar
    63    30    74 1
    64    32    31 ar
    65    31    75 1
    66    33    32 ar
    67    32    76 1
    68    33    77 1
    69    35    34 2
    70    34    36 1
    71    36    37 1
    72    36    38 1
    73    36    78 1
    74    37    39 1
    75    37    79 1
    76    37    80 1
    77    38    81 1
    78    38    82 1
    79    40    39 1
    80    39    83 1
    81    39    84 1
    82    45    40 ar
    83    40    41 ar
    84    42    41 ar
    85    41    85 1
    86    43    42 ar
    87    42    86 1
    88    44    43 ar
    89    43    87 1
    90    44    45 ar
    91    44    88 1
    92    45    89 1
    93    90    38 1
@<TRIPOS>SUBSTRUCTURE
     1 LXT         1 TEMP              0 ****  ****    0 ROOT
