@<TRIPOS>MOLECULE
LXV
   35    36     1     0     0
SMALL
bcc


@<TRIPOS>ATOM
      1 C1           0.0000     0.0000     0.0000 c3         1 LXV       0.151800
      2 C2           1.5440     0.0000     0.0000 c3         1 LXV       0.201500
      3 C3           1.8920     0.0000     1.5120 c3         1 LXV      -0.050400
      4 C4           0.7570     0.8810     2.0920 c3         1 LXV       0.159500
      5 N5          -0.4360     0.5300     1.3010 nh         1 LXV      -0.524600
      6 N6           2.0610    -1.2060    -0.6510 n7         1 LXV      -0.568100
      7 S7           2.4790    -1.1670    -2.2540 sy         1 LXV       1.035200
      8 C8           3.8400    -0.0580    -2.4110 ca         1 LXV      -0.139500
      9 C9           5.0460    -0.3540    -1.8030 ca         1 LXV       0.117100
     10 C10          6.1150     0.5160    -1.9270 ca         1 LXV      -0.106000
     11 C11          5.9750     1.6820    -2.6570 ca         1 LXV      -0.026000
     12 C12          4.7690     1.9770    -3.2650 ca         1 LXV      -0.002900
     13 C13          3.7020     1.1040    -3.1460 ca         1 LXV       0.027000
     14 Br14         4.5780     3.5710    -4.2640 br         1 LXV      -0.100100
     15 Br15         5.2370    -1.9470    -0.8040 br         1 LXV      -0.085100
     16 O16          2.9770    -2.4610    -2.5700 o          1 LXV      -0.572800
     17 O17          1.3900    -0.5650    -2.9380 o          1 LXV      -0.572800
     18 C18         -1.7360     0.6750     1.7090 c2         1 LXV       0.536100
     19 N19         -2.7030     0.3310     0.9230 n2         1 LXV      -0.774100
     20 C20          0.5320     0.5540     3.5690 c3         1 LXV      -0.010100
     21 H1          -0.3680     0.6350    -0.7970 h1         1 LXV       0.029700
     22 H1A         -0.3680    -1.0110    -0.1270 h1         1 LXV       0.029700
     23 H2           1.9240     0.8950    -0.4780 h1         1 LXV       0.039700
     24 H3           2.8600     0.4540     1.6850 hc         1 LXV       0.032200
     25 H3A          1.8470    -1.0030     1.9180 hc         1 LXV       0.032200
     26 H4           0.9960     1.9300     1.9650 h1         1 LXV       0.025700
     27 HN6          2.1260    -2.0630    -0.1380 hn         1 LXV       0.358800
     28 H10          7.0600     0.2850    -1.4510 ha         1 LXV       0.126000
     29 H11          6.8110     2.3650    -2.7520 ha         1 LXV       0.120000
     30 H13          2.7570     1.3350    -3.6220 ha         1 LXV       0.146000
     31 H18         -1.9540     1.0780     2.6910 h5         1 LXV       0.003800
     32 HN19        -2.5020    -0.0420     0.0160 hn         1 LXV       0.323400
     33 H20          1.4790     0.5840     4.0940 hc         1 LXV       0.012367
     34 H20A        -0.1440     1.2820     4.0010 hc         1 LXV       0.012367
     35 H20B         0.1010    -0.4360     3.6580 hc         1 LXV       0.012367
@<TRIPOS>BOND
     1     1     2 1   
     2     1     5 1   
     3     1    21 1   
     4     1    22 1   
     5     2     3 1   
     6     2     6 1   
     7     2    23 1   
     8     3     4 1   
     9     3    24 1   
    10     3    25 1   
    11     4     5 1   
    12     4    20 1   
    13     4    26 1   
    14     5    18 1   
    15     6     7 1   
    16     6    27 1   
    17     7     8 1   
    18     7    16 2   
    19     7    17 2   
    20     8     9 ar  
    21     8    13 ar  
    22     9    10 ar  
    23     9    15 1   
    24    10    11 ar  
    25    10    28 1   
    26    11    12 ar  
    27    11    29 1   
    28    12    13 ar  
    29    12    14 1   
    30    13    30 1   
    31    18    19 2   
    32    18    31 1   
    33    19    32 1   
    34    20    33 1   
    35    20    34 1   
    36    20    35 1   
@<TRIPOS>SUBSTRUCTURE
     1 LXV         1 TEMP              0 ****  ****    0 ROOT
