@<TRIPOS>MOLECULE
LXX
   38    42     1     0     0
SMALL
bcc


@<TRIPOS>ATOM
      1 C1          0.1650    0.9170    0.2510 cc        1 LXX      0.356800
      2 N2          1.4510    0.5220    0.1600 nd        1 LXX     -0.500100
      3 N3          1.7550   -0.2220    1.2280 na        1 LXX     -0.115800
      4 C4          0.6540   -0.3530    2.0950 ca        1 LXX      0.421800
      5 N5          0.5450   -1.0220    3.2830 nb        1 LXX     -0.660000
      6 C6         -0.6580   -0.9390    3.8540 ca        1 LXX      0.442200
      7 C7         -1.7850   -0.2330    3.3300 cp        1 LXX     -0.190300
      8 C8         -1.6610    0.4440    2.1160 ca        1 LXX     -0.010000
      9 C9         -0.4290    0.3980    1.4700 ca        1 LXX     -0.321200
     10 C10        -3.0410   -0.2310    4.0710 cp        1 LXX     -0.023000
     11 C11        -4.2710   -0.3520    3.3680 ca        1 LXX     -0.116000
     12 C12        -5.4690   -0.3450    4.0320 ca        1 LXX     -0.162300
     13 C13        -5.5130   -0.2140    5.4570 ca        1 LXX      0.393600
     14 N14        -6.7370   -0.1950    6.0990 nb        1 LXX     -0.651000
     15 C15        -6.7400   -0.0630    7.4130 ca        1 LXX      0.412200
     16 C16        -5.5620    0.0560    8.2130 ca        1 LXX     -0.234300
     17 C17        -4.3300    0.0250    7.5940 cp        1 LXX      0.003000
     18 C18        -3.1100    0.1260    8.3970 cp        1 LXX     -0.013000
     19 C19        -2.8920    1.2420    9.2180 ca        1 LXX     -0.233800
     20 C20        -1.7200    1.2890    9.9930 ca        1 LXX      0.393700
     21 N21        -0.7890    0.3150    9.9980 nb        1 LXX     -0.657000
     22 C22        -1.0130   -0.7530    9.2090 ca        1 LXX      0.393700
     23 C23        -2.1490   -0.8950    8.3920 ca        1 LXX     -0.233800
     24 C24        -4.2760   -0.1040    6.1680 ca        1 LXX     -0.130300
     25 C25        -3.0570   -0.1100    5.4470 ca        1 LXX     -0.107000
     26 H1         -0.3120    1.5370   -0.5090 h4        1 LXX      0.059800
     27 HN3         2.6630   -0.6040    1.3500 hn        1 LXX      0.337700
     28 H6         -0.7570   -1.4830    4.8130 h4        1 LXX      0.028100
     29 H8         -2.5060    1.0020    1.6860 ha        1 LXX      0.149000
     30 H11        -4.2450   -0.4610    2.2720 ha        1 LXX      0.140000
     31 H12        -6.4170   -0.4400    3.4780 ha        1 LXX      0.154000
     32 H15        -7.7330   -0.0470    7.9010 h4        1 LXX      0.026100
     33 H16        -5.6560    0.1610    9.3020 ha        1 LXX      0.150000
     34 H19        -3.6190    2.0640    9.2540 ha        1 LXX      0.150500
     35 H20        -1.5130    2.1550   10.6480 h4        1 LXX      0.026600
     36 H22        -0.2360   -1.5400    9.2330 h4        1 LXX      0.026600
     37 H23        -2.2810   -1.7910    7.7710 ha        1 LXX      0.150500
     38 H25        -2.1130   -0.0010    6.0070 ha        1 LXX      0.146000
@<TRIPOS>BOND
     1    1    2 2   
     2    1    9 1   
     3    1   26 1   
     4    2    3 1   
     5    3    4 1   
     6    3   27 1   
     7    4    5 ar  
     8    4    9 ar  
     9    5    6 ar  
    10    6    7 ar  
    11    6   28 1   
    12    7    8 ar  
    13    7   10 1   
    14    8    9 ar  
    15    8   29 1   
    16   10   11 ar  
    17   10   25 ar  
    18   11   12 ar  
    19   11   30 1   
    20   12   13 ar  
    21   12   31 1   
    22   13   14 ar  
    23   13   24 ar  
    24   14   15 ar  
    25   15   16 ar  
    26   15   32 1   
    27   16   17 ar  
    28   16   33 1   
    29   17   18 1   
    30   17   24 ar  
    31   18   19 ar  
    32   18   23 ar  
    33   19   20 ar  
    34   19   34 1   
    35   20   21 ar  
    36   20   35 1   
    37   21   22 ar  
    38   22   23 ar  
    39   22   36 1   
    40   23   37 1   
    41   24   25 ar  
    42   25   38 1   
@<TRIPOS>SUBSTRUCTURE
     1 LXX         1 TEMP              0 ****  ****    0 ROOT
