@<TRIPOS>MOLECULE
molecule
   38    42     1     0     0
SMALL
bcc


@<TRIPOS>ATOM
      1 C1           0.0000     0.0000     0.0000 cc         1 LXX       0.385800
      2 N2           1.3030     0.0000     0.0000 nd         1 LXX      -0.485100
      3 N3           1.7830     0.0000     1.3130 na         1 LXX      -0.147800
      4 C4           0.7250    -0.0010     2.1820 ca         1 LXX       0.487800
      5 N5           0.6330    -0.0020     3.5060 nb         1 LXX      -0.718000
      6 C6          -0.5270    -0.0030     4.1200 ca         1 LXX       0.485200
      7 C7          -1.7290    -0.0040     3.4050 cp         1 LXX      -0.213300
      8 C8          -1.6930    -0.0020     2.0130 ca         1 LXX      -0.009000
      9 C9          -0.4420    -0.0010     1.3910 ca         1 LXX      -0.371200
     10 C10         -3.0280    -0.0050     4.1220 cp         1 LXX      -0.015000
     11 C11         -4.2270    -0.0050     3.3930 ca         1 LXX      -0.118000
     12 C12         -5.4290    -0.0070     4.0260 ca         1 LXX      -0.154300
     13 C13         -5.4850    -0.0090     5.4310 ca         1 LXX       0.417600
     14 N14         -6.6610    -0.0110     6.0690 nb         1 LXX      -0.677000
     15 C15         -6.7370    -0.0130     7.3780 ca         1 LXX       0.431200
     16 C16         -5.6020    -0.0130     8.1810 ca         1 LXX      -0.239300
     17 C17         -4.3450    -0.0110     7.5910 cp         1 LXX       0.002000
     18 C18         -3.1140    -0.0100     8.4150 cp         1 LXX      -0.011000
     19 C19         -2.9470     0.9080     9.4570 ca         1 LXX      -0.243300
     20 C20         -1.7840     0.8720    10.1990 ca         1 LXX       0.420200
     21 N21         -0.8390    -0.0110     9.9370 nb         1 LXX      -0.686000
     22 C22         -0.9580    -0.8930     8.9640 ca         1 LXX       0.420200
     23 C23         -2.0900    -0.9320     8.1760 ca         1 LXX      -0.243300
     24 C24         -4.2790    -0.0090     6.1750 ca         1 LXX      -0.134300
     25 C25         -3.0500    -0.0130     5.5060 ca         1 LXX      -0.119000
     26 H1          -0.6390    -0.0000    -0.8740 h4         1 LXX       0.065800
     27 HN3          2.7490     0.0000     1.5770 hn         1 LXX       0.342700
     28 H6          -0.5550    -0.0040     5.2030 h4         1 LXX       0.032100
     29 H8          -2.6070    -0.0030     1.4310 ha         1 LXX       0.144000
     30 H11         -4.1940    -0.0040     2.3100 ha         1 LXX       0.135000
     31 H12         -6.3460    -0.0070     3.4480 ha         1 LXX       0.152000
     32 H15         -7.7130    -0.0140     7.8480 h4         1 LXX       0.026100
     33 H16         -5.6980    -0.0140     9.2600 ha         1 LXX       0.144000
     34 H19         -3.7190     1.6350     9.6780 ha         1 LXX       0.146500
     35 H20         -1.6440     1.5790    11.0080 h4         1 LXX       0.027600
     36 H22         -0.1580    -1.6020     8.7850 h4         1 LXX       0.027600
     37 H23         -2.1800    -1.6600     7.3780 ha         1 LXX       0.146500
     38 H25         -2.1300     0.1200     6.0620 ha         1 LXX       0.145000
@<TRIPOS>BOND
     1     1     2 2
     2     1     9 1
     3     2     3 1
     4     3     4 1
     5     4     5 ar
     6     4     9 ar
     7     5     6 ar
     8     6     7 ar
     9     7     8 ar
    10     7    10 1
    11     8     9 ar
    12    10    11 ar
    13    10    25 ar
    14    11    12 ar
    15    12    13 ar
    16    13    14 ar
    17    13    24 ar
    18    14    15 ar
    19    15    16 ar
    20    16    17 ar
    21    17    18 1
    22    17    24 ar
    23    18    19 ar
    24    18    23 ar
    25    19    20 ar
    26    20    21 ar
    27    21    22 ar
    28    22    23 ar
    29    24    25 ar
    30     1    26 1
    31     3    27 1
    32     6    28 1
    33     8    29 1
    34    11    30 1
    35    12    31 1
    36    15    32 1
    37    16    33 1
    38    19    34 1
    39    20    35 1
    40    22    36 1
    41    23    37 1
    42    25    38 1
@<TRIPOS>SUBSTRUCTURE
     1 LXX         1 TEMP              0 ****  ****    0 ROOT
