@<TRIPOS>MOLECULE
LY0
   25    24     1     0     0
SMALL
bcc


@<TRIPOS>ATOM
      1 P          -0.0830   -0.5930    0.4900 p5        1 LY0      1.517100
      2 C1          1.9630   -0.5280   -1.1000 c3        1 LY0     -0.105100
      3 N1          1.8280    1.0330    0.8230 n3        1 LY0     -0.890800
      4 C2          1.0870    0.3570   -0.2290 c3        1 LY0     -0.162700
      5 C4         -0.9830   -1.2860   -0.6800 c3        1 LY0     -0.424600
      6 C5         -1.7090   -0.2440   -1.5100 c3        1 LY0     -0.180700
      7 C6         -0.8860    0.1630   -2.7720 c         1 LY0      0.904600
      8 C7         -3.0560   -0.7470   -1.9720 c3        1 LY0     -0.061100
      9 O31        -0.7790    0.0430    1.6150 o         1 LY0     -0.906300
     10 O32         0.6700   -1.8500    1.1940 oh        1 LY0     -0.800400
     11 O61        -0.6940    1.3970   -2.9510 o         1 LY0     -0.832800
     12 O62        -0.4270   -0.7530   -3.5090 o         1 LY0     -0.832800
     13 H1          1.3970   -0.7850   -2.0360 hc        1 LY0      0.057367
     14 H1A         2.9060   -0.0140   -1.4010 hc        1 LY0      0.057367
     15 H1B         2.2280   -1.4630   -0.5480 hc        1 LY0      0.057367
     16 HN1         1.1910    1.6350    1.3140 hn        1 LY0      0.349300
     17 HN1A        2.5660    1.5870    0.4330 hn        1 LY0      0.349300
     18 H2          0.6060    1.1030   -0.9470 h1        1 LY0      0.123700
     19 H4         -1.7350   -1.9880   -0.2310 hc        1 LY0      0.110200
     20 H4A        -0.3950   -1.9210   -1.4010 hc        1 LY0      0.110200
     21 H5         -1.8620    0.6750   -0.8780 hc        1 LY0      0.038700
     22 H7         -3.7000   -1.0310   -1.1040 hc        1 LY0      0.022700
     23 H7A        -3.5760    0.0500   -2.5560 hc        1 LY0      0.022700
     24 H7B        -2.9220   -1.6390   -2.6300 hc        1 LY0      0.022700
     25 HO32        0.7730   -1.7520    2.1360 ho        1 LY0      0.455000
@<TRIPOS>BOND
     1    1    4 1
     2    1    5 1
     3    1    9 2
     4    1   10 1
     5    2    4 1
     6    2   13 1
     7    2   14 1
     8    2   15 1
     9    3    4 1
    10    3   16 1
    11    3   17 1
    12    4   18 1
    13    5    6 1
    14    5   19 1
    15    5   20 1
    16    6    7 1
    17    6    8 1
    18    6   21 1
    19    7   11 1
    20    7   12 1
    21    8   22 1
    22    8   23 1
    23    8   24 1
    24   10   25 1
@<TRIPOS>SUBSTRUCTURE
     1 LY0         1 TEMP              0 ****  ****    0 ROOT
