@<TRIPOS>MOLECULE
molecule
   24    25     1     0     0
SMALL
bcc


@<TRIPOS>ATOM
      1 C1           0.0000     0.0000     0.0000 c3         1 LY1       0.188100
      2 N1           1.4670     0.0000     0.0000 n7         1 LY1      -0.797200
      3 C2           1.8890     0.0000     1.4070 c3         1 LY1       0.139800
      4 C3           1.4150    -1.2630     2.1020 c3         1 LY1      -0.082400
      5 C4           1.4340    -2.3980     1.0730 c3         1 LY1      -0.029100
      6 C4A          0.0840    -2.5100     0.4150 ca         1 LY1      -0.046300
      7 C5          -0.5010    -3.7630     0.3130 ca         1 LY1      -0.122000
      8 C6          -1.7280    -3.9120    -0.3000 ca         1 LY1      -0.114000
      9 C7          -2.3720    -2.8040    -0.8180 ca         1 LY1       0.027400
     10 C8          -1.7870    -1.5580    -0.7180 ca         1 LY1       0.026400
     11 C8A         -0.5560    -1.4030    -0.0880 ca         1 LY1      -0.054300
     12 Cl1         -3.9110    -2.9800    -1.6020 cl         1 LY1      -0.092400
     13 Cl2         -2.5970    -0.1710    -1.3770 cl         1 LY1      -0.094400
     14 HC11        -0.3520     0.5730    -0.8500 h1         1 LY1       0.053200
     15 HC12        -0.3520     0.4620     0.9150 h1         1 LY1       0.053200
     16 HN11         1.8010     0.8300    -0.4480 hn         1 LY1       0.358800
     17 HC21         2.9700     0.0490     1.4550 h1         1 LY1       0.033200
     18 HC22         1.4640     0.8620     1.9070 h1         1 LY1       0.033200
     19 HC31         0.3990    -1.1170     2.4500 hc         1 LY1       0.050700
     20 HC32         2.0980    -1.5030     2.9070 hc         1 LY1       0.050700
     21 HC41         1.6500    -3.3280     1.5840 hc         1 LY1       0.064200
     22 HC42         2.1730    -2.1680     0.3150 hc         1 LY1       0.064200
     23 HC51         0.0060    -4.6290     0.7210 ha         1 LY1       0.140000
     24 HC61        -2.1830    -4.8920    -0.3760 ha         1 LY1       0.149000
@<TRIPOS>BOND
     1     1     2 1
     2     1    11 1
     3     1    14 1
     4     1    15 1
     5     2     3 1
     6     2    16 1
     7     3     4 1
     8     3    17 1
     9     3    18 1
    10     4     5 1
    11     4    19 1
    12     4    20 1
    13     5     6 1
    14     5    21 1
    15     5    22 1
    16     6     7 ar
    17     6    11 ar
    18     7     8 ar
    19     7    23 1
    20     8     9 ar
    21     8    24 1
    22     9    10 ar
    23     9    12 1
    24    10    11 ar
    25    10    13 1
@<TRIPOS>SUBSTRUCTURE
     1 LY1         1 TEMP              0 ****  ****    0 ROOT
