@<TRIPOS>MOLECULE
LY2
   40    43     1     0     0
SMALL
bcc


@<TRIPOS>ATOM
      1 N14        -0.0400   -0.3690   -0.2690 nh        1 LY2     -0.612400
      2 C15         1.3790   -0.2410    0.0480 c3        1 LY2      0.143800
      3 C19        -0.7960   -0.9340    0.8400 c3        1 LY2      0.143800
      4 C11        -0.6040    0.7030   -0.9890 cc        1 LY2      0.322100
      5 C16         1.6590    0.3680    1.4280 c3        1 LY2      0.094400
      6 O17         0.9300   -0.2960    2.4540 os        1 LY2     -0.409600
      7 C18        -0.4720   -0.3180    2.2060 c3        1 LY2      0.094400
      8 C1         -4.1380    3.9240   -2.4820 ca        1 LY2     -0.164000
      9 C2         -2.9130    3.5530   -3.0230 ca        1 LY2     -0.046000
     10 C6         -4.5570    3.3870   -1.2620 ca        1 LY2     -0.075000
     11 C3         -2.0950    2.6350   -2.3510 ca        1 LY2     -0.211600
     12 C4         -2.5240    2.1030   -1.1260 ca        1 LY2      0.159100
     13 C9         -0.8050    2.2160   -2.9250 c         1 LY2      0.598900
     14 C5         -3.7650    2.4750   -0.5570 cp        1 LY2     -0.063000
     15 O12        -1.7680    1.1990   -0.3950 os        1 LY2     -0.250200
     16 C20        -4.2330    1.9550    0.7260 cp        1 LY2     -0.035000
     17 C25        -5.5390    1.4560    0.8440 ca        1 LY2     -0.113500
     18 C24        -6.0030    0.9890    2.0720 ca        1 LY2     -0.133500
     19 C21        -3.4040    1.9790    1.8550 ca        1 LY2     -0.113500
     20 C22        -3.8750    1.5160    3.0820 ca        1 LY2     -0.133500
     21 C23        -5.1740    1.0200    3.1930 ca        1 LY2     -0.124000
     22 C10        -0.1220    1.1740   -2.1750 cd        1 LY2     -0.366200
     23 O13        -0.3480    2.7020   -3.9710 o         1 LY2     -0.554100
     24 H151        1.8990    0.3730   -0.7360 h1        1 LY2      0.077450
     25 H152        1.7950   -1.2890    0.0200 h1        1 LY2      0.077450
     26 H191       -1.8990   -0.8400    0.6450 h1        1 LY2      0.077450
     27 H192       -0.5270   -2.0290    0.8610 h1        1 LY2      0.077450
     28 H161        1.4120    1.4620    1.4400 h1        1 LY2      0.060200
     29 H162        2.7340    0.2140    1.7080 h1        1 LY2      0.060200
     30 H181       -0.8880   -0.9560    3.0290 h1        1 LY2      0.060200
     31 H182       -0.8870    0.7230    2.2770 h1        1 LY2      0.060200
     32 HC1        -4.7800    4.6430   -3.0110 ha        1 LY2      0.143000
     33 HC2        -2.5620    3.9670   -3.9830 ha        1 LY2      0.163000
     34 HC6        -5.5280    3.6880   -0.8380 ha        1 LY2      0.144000
     35 H25        -6.1940    1.4310   -0.0400 ha        1 LY2      0.137500
     36 H24        -7.0270    0.5960    2.1550 ha        1 LY2      0.133500
     37 H21        -2.3770    2.3640    1.7640 ha        1 LY2      0.137500
     38 H22        -3.2190    1.5440    3.9650 ha        1 LY2      0.133500
     39 H23        -5.5450    0.6560    4.1620 ha        1 LY2      0.134000
     40 H10         0.7920    0.7620   -2.6260 ha        1 LY2      0.171000
@<TRIPOS>BOND
     1    1    2 1   
     2    1    3 1   
     3    1    4 1   
     4    2    5 1   
     5    2   24 1   
     6    2   25 1   
     7    3    7 1   
     8    3   26 1   
     9    3   27 1   
    10    4   15 1   
    11    4   22 2   
    12    5    6 1   
    13    5   28 1   
    14    5   29 1   
    15    6    7 1   
    16    7   30 1   
    17    7   31 1   
    18    8    9 ar  
    19    8   10 ar  
    20    8   32 1   
    21    9   11 ar  
    22    9   33 1   
    23   10   14 ar  
    24   10   34 1   
    25   11   12 ar  
    26   11   13 1   
    27   12   14 ar  
    28   12   15 1   
    29   13   22 1   
    30   13   23 2   
    31   14   16 1   
    32   16   17 ar  
    33   16   19 ar  
    34   17   18 ar  
    35   17   35 1   
    36   18   21 ar  
    37   18   36 1   
    38   19   20 ar  
    39   19   37 1   
    40   20   21 ar  
    41   20   38 1   
    42   21   39 1   
    43   22   40 1   
@<TRIPOS>SUBSTRUCTURE
     1 LY2         1 TEMP              0 ****  ****    0 ROOT
