@<TRIPOS>MOLECULE
LY3
   54    57     1     0     0
SMALL
bcc


@<TRIPOS>ATOM
      1 N1         -0.7620    0.0590    0.2500 n         1 LY3     -0.503400
      2 C1          0.6170   -0.0880   -0.0140 cc        1 LY3      0.678800
      3 N2          1.5750   -0.1370    0.9390 nd        1 LY3     -0.677100
      4 C2          1.1130    0.0310    2.2360 cd        1 LY3      0.200100
      5 C3         -0.2640    0.2100    2.6020 cc        1 LY3     -0.280600
      6 C4         -1.2630    0.2380    1.5650 c         1 LY3      0.757100
      7 N3          1.8720    0.0450    3.4030 na        1 LY3     -0.165100
      8 C5          1.0040    0.2210    4.4890 cd        1 LY3     -0.157300
      9 C6         -0.3150    0.3270    4.0330 cc        1 LY3     -0.069300
     10 C7         -1.5240    0.4870    4.8530 c3        1 LY3     -0.005100
     11 C8         -2.1700    1.8510    4.6440 c3        1 LY3     -0.047100
     12 C9         -3.5980    1.8420    5.0640 ca        1 LY3     -0.017300
     13 C10        -4.0100    2.4570    6.2500 ca        1 LY3     -0.138000
     14 C11        -5.3510    2.4410    6.6210 ca        1 LY3     -0.068500
     15 C12        -6.3020    1.8030    5.8080 ca        1 LY3     -0.190600
     16 C13        -5.8920    1.1920    4.6140 ca        1 LY3     -0.068500
     17 C14        -4.5510    1.2140    4.2470 ca        1 LY3     -0.138000
     18 C15        -7.6990    1.8270    6.2730 c         1 LY3      0.578700
     19 O1         -2.4920    0.3970    1.6920 o         1 LY3     -0.652500
     20 N4          1.0120   -0.1260   -1.3720 nh        1 LY3     -0.889800
     21 C16        -9.9860    0.7240    6.1960 c3        1 LY3     -0.059500
     22 C17       -11.1160    1.5750    5.6440 c3        1 LY3     -0.085400
     23 C18       -10.3660   -0.8310    6.0410 c         1 LY3      0.932600
     24 O2         -9.4570   -1.5580    5.5580 o         1 LY3     -0.763800
     25 O3        -11.5040   -1.1400    6.4340 o         1 LY3     -0.763800
     26 N5         -8.6610    0.9580    5.5400 n4        1 LY3     -0.649800
     27 O4         -8.1160    2.4860    7.2240 o         1 LY3     -0.477100
     28 C19       -11.1040    3.0130    6.1250 c3        1 LY3     -0.114700
     29 C20       -10.5070    3.9540    5.1430 cc        1 LY3      0.503300
     30 N6        -11.0070    5.1580    4.7310 nd        1 LY3     -0.484800
     31 N7        -10.0700    5.5990    3.8820 na        1 LY3      0.105900
     32 N8         -9.0340    4.7530    3.7410 nd        1 LY3     -0.136800
     33 N9         -9.2500    3.7460    4.4830 nc        1 LY3     -0.441000
     34 HN1        -1.4130    0.1240   -0.5020 hn        1 LY3      0.335500
     35 HN3         2.8520   -0.0650    3.4530 hn        1 LY3      0.312700
     36 HC5         1.3930    0.2540    5.5070 h4        1 LY3      0.175000
     37 HC71       -2.2600   -0.3150    4.5630 hc        1 LY3      0.058700
     38 HC72       -1.2780    0.3480    5.9390 hc        1 LY3      0.058700
     39 HC81       -1.5990    2.6320    5.2100 hc        1 LY3      0.066200
     40 HC82       -2.1190    2.1120    3.5490 hc        1 LY3      0.066200
     41 H10        -3.2720    2.9590    6.8950 ha        1 LY3      0.164000
     42 H11        -5.6760    2.9290    7.5550 ha        1 LY3      0.148000
     43 H13        -6.6060    0.6930    3.9400 ha        1 LY3      0.148000
     44 H14        -4.2210    0.7390    3.3040 ha        1 LY3      0.164000
     45 HN41        0.3990   -0.6230   -1.9800 hn        1 LY3      0.419300
     46 HN42        1.9780   -0.3310   -1.5160 hn        1 LY3      0.419300
     47 H16        -9.8660    0.9090    7.3010 hx        1 LY3      0.102700
     48 H171      -11.1440    1.5280    4.5240 hc        1 LY3      0.088700
     49 H172      -12.0620    1.0780    6.0120 hc        1 LY3      0.088700
     50 HN5        -8.2390   -0.0000    5.4320 hn        1 LY3      0.473300
     51 H191      -10.5190    3.0990    7.0850 hc        1 LY3      0.084200
     52 H192      -12.1590    3.3370    6.3440 hc        1 LY3      0.084200
     53 HN7       -10.1500    6.4750    3.4030 hn        1 LY3      0.356700
     54 H52        -8.8040    1.3400    4.6010 hn        1 LY3      0.473300
@<TRIPOS>BOND
     1    1    2 1
     2    1    6 1
     3    1   34 1
     4    2    3 2
     5    2   20 1
     6    3    4 1
     7    4    5 2
     8    4    7 1
     9    5    6 1
    10    5    9 1
    11    6   19 2
    12    7    8 1
    13    7   35 1
    14    8    9 2
    15    8   36 1
    16    9   10 1
    17   10   11 1
    18   10   37 1
    19   10   38 1
    20   11   12 1
    21   11   39 1
    22   11   40 1
    23   12   13 ar
    24   12   17 ar
    25   13   14 ar
    26   13   41 1
    27   14   15 ar
    28   14   42 1
    29   15   16 ar
    30   15   18 1
    31   16   17 ar
    32   16   43 1
    33   17   44 1
    34   18   26 1
    35   18   27 2
    36   20   45 1
    37   20   46 1
    38   21   22 1
    39   21   23 1
    40   21   26 1
    41   21   47 1
    42   22   28 1
    43   22   48 1
    44   22   49 1
    45   23   24 1
    46   23   25 1
    47   26   50 1
    48   26   54 1
    49   28   29 1
    50   28   51 1
    51   28   52 1
    52   29   30 2
    53   29   33 1
    54   30   31 1
    55   31   32 1
    56   31   53 1
    57   32   33 2
@<TRIPOS>SUBSTRUCTURE
     1 LY3         1 TEMP              0 ****  ****    0 ROOT
