@<TRIPOS>MOLECULE
LY4
   64    69     1     0     0
SMALL
bcc


@<TRIPOS>ATOM
      1 CBD        -0.6620    0.1000    0.8510 c3        1 LY4     -0.125400
      2 CBB         0.6440    0.8320    1.1800 c3        1 LY4      0.043300
      3 NAW         1.5290    0.1810    2.0950 na        1 LY4     -0.087400
      4 CAV         1.2750   -0.0320    3.4520 cc        1 LY4     -0.063100
      5 CAX         2.8340   -0.2630    1.8210 ca        1 LY4     -0.072200
      6 CAY         3.5920   -0.2170    0.6400 ca        1 LY4     -0.201000
      7 CAZ         4.8770   -0.7430    0.6730 ca        1 LY4     -0.116000
      8 CAP         5.4120   -1.2990    1.8450 ca        1 LY4     -0.154000
      9 CAO         4.6840   -1.3300    3.0280 ca        1 LY4     -0.057000
     10 CAN         3.3860   -0.8170    3.0400 ca        1 LY4     -0.065800
     11 CAM         2.3640   -0.6690    4.0620 cd        1 LY4     -0.086200
     12 CAH         2.3880   -1.0930    5.4250 cd        1 LY4     -0.084200
     13 CAE         3.6390   -1.0560    6.2830 c         1 LY4      0.709700
     14 OAF         4.7870   -0.7330    5.9720 o         1 LY4     -0.567500
     15 NAD         3.2570   -1.4870    7.5710 n         1 LY4     -0.623500
     16 CAC         1.8790   -1.7990    7.6020 c         1 LY4      0.705700
     17 OAB         1.2860   -2.2020    8.6020 o         1 LY4     -0.551500
     18 CAG         1.3480   -1.5480    6.2000 cc        1 LY4     -0.037200
     19 CAL         0.0020   -1.7940    5.8050 cc        1 LY4     -0.094200
     20 CAU        -0.3590   -2.1540    4.5010 cd        1 LY4     -0.091100
     21 CAK        -1.2360   -1.6870    6.5640 ca        1 LY4     -0.062800
     22 CAJ        -1.5430   -1.3840    7.8900 ca        1 LY4     -0.071000
     23 CAI        -2.8760   -1.3500    8.2820 ca        1 LY4     -0.138000
     24 CAQ        -3.9120   -1.6180    7.3740 ca        1 LY4     -0.100000
     25 CAR        -3.6490   -1.9320    6.0470 ca        1 LY4     -0.145000
     26 CAS        -2.3100   -1.9690    5.6390 ca        1 LY4     -0.058200
     27 NAT        -1.7440   -2.3040    4.3860 na        1 LY4     -0.074400
     28 CBA        -2.4560   -2.2060    3.1450 c3        1 LY4      0.024300
     29 CBC        -1.7660   -2.8860    1.9560 c3        1 LY4      0.112400
     30 OBE        -0.5610   -2.2110    1.5850 os        1 LY4     -0.454600
     31 CBF        -0.6360   -1.3680    0.4360 c3        1 LY4      0.143100
     32 CBG         0.5490   -1.7010   -0.5050 c3        1 LY4      0.087800
     33 NBH         1.1770   -3.0430   -0.2820 n4        1 LY4     -0.667400
     34 CBI         0.2950   -4.1390   -0.7550 c3        1 LY4      0.079100
     35 CBJ         2.5110   -3.1170   -0.9310 c3        1 LY4      0.079100
     36 HBD1       -1.3370    0.1660    1.7490 hc        1 LY4      0.079200
     37 HBD2       -1.1440    0.6820    0.0180 hc        1 LY4      0.079200
     38 HBB1        0.3450    1.8320    1.6200 h1        1 LY4      0.073200
     39 HBB2        1.2090    1.0460    0.2270 h1        1 LY4      0.073200
     40 HAV         0.3260    0.2780    3.9000 h4        1 LY4      0.188000
     41 HAY         3.2160    0.2810   -0.2640 ha        1 LY4      0.126000
     42 HAZ         5.5030   -0.6960   -0.2320 ha        1 LY4      0.140000
     43 HAP         6.4420   -1.6880    1.8320 ha        1 LY4      0.150000
     44 HAO         5.1310   -1.7190    3.9580 ha        1 LY4      0.174000
     45 HAD         3.8640   -1.5410    8.3500 hn        1 LY4      0.357500
     46 HAU         0.2970   -2.3490    3.6470 h4        1 LY4      0.174000
     47 HAJ        -0.7360   -1.1960    8.6180 ha        1 LY4      0.166000
     48 HAI        -3.1270   -1.1130    9.3270 ha        1 LY4      0.146000
     49 HAQ        -4.9560   -1.5810    7.7230 ha        1 LY4      0.142000
     50 HAR        -4.4660   -2.1500    5.3460 ha        1 LY4      0.132000
     51 HBA1       -3.4610   -2.7030    3.2870 h1        1 LY4      0.066200
     52 HBA2       -2.6360   -1.1220    2.8840 h1        1 LY4      0.066200
     53 HBC1       -1.4230   -3.9230    2.2290 h1        1 LY4      0.068700
     54 HBC2       -2.4930   -2.9380    1.1040 h1        1 LY4      0.068700
     55 HBF        -1.5890   -1.5780   -0.1360 h1        1 LY4      0.064700
     56 HBG1        0.1850   -1.6560   -1.5710 hx        1 LY4      0.109200
     57 HBG2        1.3700   -0.9380   -0.3760 hx        1 LY4      0.109200
     58 HBI1        0.7740   -5.1290   -0.5240 hx        1 LY4      0.105367
     59 HBI2       -0.6910   -4.0630   -0.2210 hx        1 LY4      0.105367
     60 HBI3        0.1380   -4.0510   -1.8630 hx        1 LY4      0.105367
     61 HBJ1        2.9470   -4.1370   -0.7560 hx        1 LY4      0.105367
     62 HBJ2        3.1910   -2.3360   -0.4790 hx        1 LY4      0.105367
     63 HBJ3        2.4040   -2.9360   -2.0330 hx        1 LY4      0.105367
     64 HBH1        1.3000   -3.1480    0.7410 hn        1 LY4      0.476800
@<TRIPOS>BOND
     1    1    2 1   
     2    1   31 1   
     3    1   36 1   
     4    1   37 1   
     5    2    3 1   
     6    2   38 1   
     7    2   39 1   
     8    3    4 1   
     9    3    5 1   
    10    4   11 2   
    11    4   40 1   
    12    5    6 ar  
    13    5   10 ar  
    14    6    7 ar  
    15    6   41 1   
    16    7    8 ar  
    17    7   42 1   
    18    8    9 ar  
    19    8   43 1   
    20    9   10 ar  
    21    9   44 1   
    22   10   11 1   
    23   11   12 1   
    24   12   13 1   
    25   12   18 2   
    26   13   14 2   
    27   13   15 1   
    28   15   16 1   
    29   15   45 1   
    30   16   17 2   
    31   16   18 1   
    32   18   19 1   
    33   19   20 2   
    34   19   21 1   
    35   20   27 1   
    36   20   46 1   
    37   21   22 ar  
    38   21   26 ar  
    39   22   23 ar  
    40   22   47 1   
    41   23   24 ar  
    42   23   48 1   
    43   24   25 ar  
    44   24   49 1   
    45   25   26 ar  
    46   25   50 1   
    47   26   27 1   
    48   27   28 1   
    49   28   29 1   
    50   28   51 1   
    51   28   52 1   
    52   29   30 1   
    53   29   53 1   
    54   29   54 1   
    55   30   31 1   
    56   31   32 1   
    57   31   55 1   
    58   32   33 1   
    59   32   56 1   
    60   32   57 1   
    61   33   34 1   
    62   33   35 1   
    63   33   64 1   
    64   34   58 1   
    65   34   59 1   
    66   34   60 1   
    67   35   61 1   
    68   35   62 1   
    69   35   63 1   
@<TRIPOS>SUBSTRUCTURE
     1 LY4         1 TEMP              0 ****  ****    0 ROOT
