@<TRIPOS>MOLECULE
molecule
   46    48     1     0     0
SMALL
bcc


@<TRIPOS>ATOM
      1 F2           0.0000     0.0000     0.0000 f          1 LY5      -0.259800
      2 C15          1.3990     0.0000     0.0000 c3         1 LY5       0.339600
      3 F1           1.8920    -1.0930    -0.7200 f          1 LY5      -0.259800
      4 C14          1.9480     0.0000     1.4510 c3         1 LY5      -0.088400
      5 C12          1.8770     1.5040     1.8120 c3         1 LY5       0.058500
      6 C13          2.8660     1.8290     2.9030 c          1 LY5       0.892600
      7 O4           3.7560     2.6180     2.6950 o          1 LY5      -0.822800
      8 O3           2.7590     1.2390     4.1040 o          1 LY5      -0.822800
      9 C16          1.9430     1.3240    -0.5770 c3         1 LY5       0.116800
     10 N2           2.2370     2.2100     0.5640 n3         1 LY5      -0.662600
     11 C11          1.5070     3.4790     0.4470 c3         1 LY5       0.167800
     12 C7           2.1810     4.3590    -0.6080 c3         1 LY5      -0.065700
     13 C6           3.5800     4.7490    -0.1290 c3         1 LY5      -0.065400
     14 C8           1.3460     5.6240    -0.8250 c3         1 LY5      -0.079400
     15 C9           2.0180     6.4990    -1.8840 c3         1 LY5      -0.075400
     16 C4           3.4200     6.8870    -1.4140 c3         1 LY5      -0.058700
     17 C5           4.2570     5.6260    -1.1850 c3         1 LY5      -0.073700
     18 C3           3.3280     7.6770    -0.1070 c3         1 LY5       0.157800
     19 N1           4.6780     8.0420     0.3400 n7         1 LY5      -0.801200
     20 C1           5.4930     6.8490     0.6050 c3         1 LY5       0.058500
     21 C2           5.6450     6.0350    -0.6830 c3         1 LY5      -0.047400
     22 C10          6.8540     7.2700     1.0970 c          1 LY5       0.894600
     23 O1           7.2540     8.3890     0.8810 o          1 LY5      -0.850300
     24 O2           7.6210     6.4000     1.7730 o          1 LY5      -0.850300
     25 H141         1.3110    -0.5840     2.1040 hc         1 LY5       0.073700
     26 H142         2.9710    -0.3550     1.4760 hc         1 LY5       0.073700
     27 H12          0.8720     1.7690     2.1170 h1         1 LY5       0.027700
     28 H161         2.8500     1.1350    -1.1390 h1         1 LY5       0.051200
     29 H162         1.1970     1.7820    -1.2150 h1         1 LY5       0.051200
     30 H111         0.4840     3.2800     0.1520 h1         1 LY5       0.030200
     31 H112         1.5140     3.9900     1.4020 h1         1 LY5       0.030200
     32 H7           2.2590     3.8160    -1.5420 hc         1 LY5       0.030700
     33 H61          4.1690     3.8530     0.0250 hc         1 LY5       0.078700
     34 H62          3.5010     5.3000     0.8000 hc         1 LY5       0.078700
     35 H81          0.3550     5.3470    -1.1620 hc         1 LY5       0.028700
     36 H82          1.2770     6.1730     0.1060 hc         1 LY5       0.028700
     37 H91          1.4290     7.3960    -2.0350 hc         1 LY5       0.018700
     38 H92          2.0900     5.9480    -2.8130 hc         1 LY5       0.018700
     39 H4           3.8950     7.5000    -2.1710 hc         1 LY5       0.045700
     40 H5           4.3510     5.0750    -2.1140 hc         1 LY5       0.020700
     41 H31          2.7470     8.5760    -0.2700 h1         1 LY5       0.012200
     42 H32          2.8520     7.0650     0.6500 h1         1 LY5       0.012200
     43 HN1          4.6160     8.5950     1.1720 hn         1 LY5       0.349800
     44 H1           5.0050     6.2420     1.3570 h1         1 LY5       0.041700
     45 H21          6.1380     6.6390    -1.4350 hc         1 LY5       0.048200
     46 H22          6.2320     5.1470    -0.4810 hc         1 LY5       0.048200
@<TRIPOS>BOND
     1     3     2 1
     2     2     1 1
     3     2     9 1
     4     2     4 1
     5     9    10 1
     6     4     5 1
     7    10     5 1
     8    10    11 1
     9    17    21 1
    10    17    13 1
    11    17    16 1
    12    21    20 1
    13    12    13 1
    14    12    11 1
    15    12    14 1
    16     5     6 1
    17    15    16 1
    18    15    14 1
    19    16    18 1
    20    23    22 1
    21     7     6 1
    22     6     8 1
    23    20    22 1
    24    20    19 1
    25    22    24 1
    26    18    19 1
    27     4    25 1
    28     4    26 1
    29     5    27 1
    30     9    28 1
    31     9    29 1
    32    11    30 1
    33    11    31 1
    34    12    32 1
    35    13    33 1
    36    13    34 1
    37    14    35 1
    38    14    36 1
    39    15    37 1
    40    15    38 1
    41    16    39 1
    42    17    40 1
    43    18    41 1
    44    18    42 1
    45    19    43 1
    46    20    44 1
    47    21    45 1
    48    21    46 1
@<TRIPOS>SUBSTRUCTURE
     1 LY5         1 TEMP              0 ****  ****    0 ROOT
