@<TRIPOS>MOLECULE
LY7
   47    47     1     0     0
SMALL
bcc


@<TRIPOS>ATOM
      1 CAA         0.8320    0.2600    2.4960 c3        1 LY7     -0.082100
      2 CAB         3.0190    0.8520    1.4910 c3        1 LY7     -0.082100
      3 CAC        -1.3930   -4.1620    1.3370 c3        1 LY7     -0.157900
      4 NAD         6.6450  -13.1300    1.4810 n1        1 LY7      0.026000
      5 OAE         0.2970   -1.6880    0.3330 o         1 LY7     -0.693800
      6 OAF         2.4120   -2.1290    1.2210 o         1 LY7     -0.693800
      7 CAH         4.0000  -10.9950    0.6320 cc        1 LY7     -0.098000
      8 CAI         5.3320  -10.0180    2.4140 cc        1 LY7     -0.098000
      9 CAJ         3.1600   -9.8860    0.6550 cd        1 LY7     -0.087500
     10 CAK         4.4970   -8.9060    2.4250 cd        1 LY7     -0.087500
     11 CAL         3.0390   -6.3840    1.8560 cc        1 LY7     -0.186500
     12 CAM         1.1420   -7.8060    1.2990 cc        1 LY7     -0.186500
     13 CAN         2.2120   -5.2800    1.8810 cd        1 LY7      0.018000
     14 CAO         0.3050   -6.7130    1.3210 cd        1 LY7      0.018000
     15 CAP         3.6570   -0.9890   -1.3000 c3        1 LY7      0.202100
     16 NAQ         2.2590   -0.9540   -0.9940 n3        1 LY7     -0.922100
     17 CAR         5.0880  -11.0670    1.5140 cc        1 LY7     -0.011100
     18 CAS         3.4000   -8.8280    1.5490 cd        1 LY7     -0.102000
     19 CAT         2.5260   -7.6670    1.5690 cc        1 LY7      0.159000
     20 CAU         0.8090   -5.4110    1.6220 cd        1 LY7     -0.211000
     21 CAV         1.6260    0.3380    1.2090 c3        1 LY7     -0.271900
     22 CAW         0.0150   -4.2740    1.6760 c2        1 LY7      0.198800
     23 SAX         1.6370   -1.2120    0.4520 s6        1 LY7      1.435900
     24 HAA         1.3310   -0.4300    3.2210 hc        1 LY7      0.059033
     25 HAAA       -0.2070   -0.1020    2.2940 hc        1 LY7      0.059033
     26 HAAB        0.7660    1.2700    2.9690 hc        1 LY7      0.059033
     27 HAB         3.5920    0.1100    2.1020 hc        1 LY7      0.059033
     28 HABA        2.9700    1.8090    2.0660 hc        1 LY7      0.059033
     29 HABB        3.5720    1.0480    0.5400 hc        1 LY7      0.059033
     30 HAC        -1.9720   -3.7840    2.2250 hc        1 LY7      0.115700
     31 HACA       -1.4860   -3.3610    0.5400 hc        1 LY7      0.115700
     32 HACB       -1.8640   -5.1050    0.9720 hc        1 LY7      0.115700
     33 HAH         3.8100  -11.8160   -0.0780 ha        1 LY7      0.166000
     34 HAI         6.1840  -10.0760    3.1110 ha        1 LY7      0.166000
     35 HAJ         2.3140   -9.8350   -0.0490 ha        1 LY7      0.148500
     36 HAK         4.6910   -8.0930    3.1430 ha        1 LY7      0.148500
     37 HAL         4.1200   -6.2620    2.0450 ha        1 LY7      0.173000
     38 HAM         0.7330   -8.8080    1.0840 ha        1 LY7      0.173000
     39 HAN         2.6280   -4.2690    2.0760 ha        1 LY7      0.180500
     40 HAO        -0.7720   -6.8440    1.1190 ha        1 LY7      0.180500
     41 HAP         4.0250    0.0330   -1.5910 h1        1 LY7      0.056033
     42 HAPA        4.2360   -1.3430   -0.4030 h1        1 LY7      0.056033
     43 HNAQ        1.6870   -0.7450   -1.7800 hn        1 LY7      0.467800
     44 HAV         1.1110    1.0980    0.5520 h1        1 LY7      0.123700
     45 HAW         3.8510   -1.6930   -2.1530 h1        1 LY7      0.056033
     46 HAQ2        0.5070   -3.3190    1.9810 ha        1 LY7      0.180000
     47 CAG         5.9440  -12.2010    1.4960 c1        1 LY7     -0.063900
@<TRIPOS>BOND
     1    1   21 1   
     2    1   24 1   
     3    1   25 1   
     4    1   26 1   
     5    2   21 1   
     6    2   27 1   
     7    2   28 1   
     8    2   29 1   
     9    3   22 1   
    10    3   30 1   
    11    3   31 1   
    12    3   32 1   
    13    4   47 2   
    14    5   23 2   
    15    6   23 2   
    16    7    9 2   
    17    7   17 1   
    18    7   33 1   
    19    8   10 2   
    20    8   17 1   
    21    8   34 1   
    22    9   18 1   
    23    9   35 1   
    24   10   18 1   
    25   10   36 1   
    26   11   13 2   
    27   11   19 1   
    28   11   37 1   
    29   12   14 2   
    30   12   19 1   
    31   12   38 1   
    32   13   20 1   
    33   13   39 1   
    34   14   20 1   
    35   14   40 1   
    36   15   16 1   
    37   15   41 1   
    38   15   42 1   
    39   15   45 1   
    40   16   23 1   
    41   16   43 1   
    42   17   47 2   
    43   18   19 2   
    44   20   22 2   
    45   21   23 1   
    46   21   44 1   
    47   22   46 1   
@<TRIPOS>SUBSTRUCTURE
     1 LY7         1 TEMP              0 ****  ****    0 ROOT
