@<TRIPOS>MOLECULE
LY9
   18    16     1     0     0
SMALL
bcc


@<TRIPOS>ATOM
      1 OAA      -196.6410 -263.3970  -62.0260 o         1 LY9     -0.821300
      2 OAB      -193.5110 -263.4990  -61.3090 o         1 LY9     -0.599100
      3 OAC       101.7060  131.6600   34.0960 oh        1 LY9     -0.521100
      4 CAF      -195.5730 -263.6380  -62.6520 c         1 LY9      0.838600
      5 CAG      -194.2930 -262.9980  -62.1210 c         1 LY9      0.472900
      6 CAH       100.6010  133.6610   33.2680 c3        1 LY9      0.263600
      7 CAI       101.8270  132.9860   33.7060 c2        1 LY9     -0.505100
      8 CAJ       103.0920  133.5810   33.7350 c2        1 LY9      0.450100
      9 OAK       104.1820  132.8100   34.1440 oh        1 LY9     -0.656100
     10 OAL        99.5110  133.5120   34.1810 oh        1 LY9     -0.666800
     11 HAG       100.7770  134.7640   33.1490 h1        1 LY9      0.001700
     12 HAH        99.8210  132.9460   34.8960 ho        1 LY9      0.405000
     13 HAI      -194.0820 -261.9780  -62.5320 h4        1 LY9     -0.068800
     14 HOAL      100.2190  133.2430   32.2900 h1        1 LY9      0.001700
     15 HOAB      103.8510  131.9510   34.4280 ho        1 LY9      0.397000
     16 OAD       103.4590  134.7460   33.4500 o         1 LY9     -0.496000
     17 OAE      -195.4810 -264.3160  -63.7120 o         1 LY9     -0.821300
     18 HOAC      101.7480  131.1400   33.2770 ho        1 LY9      0.328000
@<TRIPOS>BOND
     1    1    4 1   
     2    2    5 2   
     3    3    7 1   
     4    3   18 1   
     5    4    5 1   
     6    4   17 1   
     7    5   13 1   
     8    6    7 1   
     9    6   10 1   
    10    6   11 1   
    11    6   14 1   
    12    7    8 2   
    13    8    9 1   
    14    8   16 1   
    15    9   15 1   
    16   10   12 1   
@<TRIPOS>SUBSTRUCTURE
     1 LY9         1 TEMP              0 ****  ****    0 ROOT
