@<TRIPOS>MOLECULE
molecule
   18    17     1     0     0
SMALL
bcc


@<TRIPOS>ATOM
      1 OAA          0.0000     0.0000     0.0000 o          1 LY9      -0.864300
      2 OAB          1.0380    -0.1170     2.3890 oh         1 LY9      -0.607800
      3 OAC          4.3310     0.1410     2.8420 oh         1 LY9      -0.607800
      4 CAF          1.2080     0.0000     0.0000 c          1 LY9       0.873600
      5 CAG          1.9620     0.0000     1.3060 c3         1 LY9       0.025600
      6 CAH          2.7450     1.3080     1.4410 c3         1 LY9       0.204100
      7 CAI          3.5100     1.3080     2.7670 c3         1 LY9       0.025600
      8 CAJ          4.3770     2.5380     2.8450 c          1 LY9       0.873600
      9 OAK          5.5800     2.4290     2.8640 o          1 LY9      -0.864300
     10 OAL          3.6690     1.4240     0.3570 oh         1 LY9      -0.567800
     11 HAG          2.6500    -0.8370     1.3260 h1         1 LY9       0.031200
     12 HAH          2.0570     2.1450     1.4210 h1         1 LY9       0.052700
     13 HAI          2.8070     1.3080     3.5900 h1         1 LY9       0.031200
     14 HOAL         3.5220     2.2380    -0.0950 ho         1 LY9       0.389000
     15 HOAB         0.7710    -1.0170     2.4790 ho         1 LY9       0.367500
     16 OAD          3.8120     3.7550     2.8950 o          1 LY9      -0.864300
     17 OAE          1.8790    -0.0020    -1.1630 o          1 LY9      -0.864300
     18 HOAC         4.5690    -0.0190     3.7400 ho         1 LY9       0.367500
@<TRIPOS>BOND
     1     4     1 1
     2     2     5 1
     3     2    15 1
     4     3     7 1
     5     3    18 1
     6     8    16 1
     7     4    17 1
     8     5     4 1
     9     6     5 1
    10     5    11 1
    11     7     6 1
    12    10     6 1
    13     6    12 1
    14     8     7 1
    15     7    13 1
    16     9     8 1
    17    10    14 1
@<TRIPOS>SUBSTRUCTURE
     1 LY9         1 TEMP              0 ****  ****    0 ROOT
