@<TRIPOS>MOLECULE
LYA
   51    53     1     0     0
SMALL
bcc


@<TRIPOS>ATOM
      1 C1         -0.4370    0.3990    0.1490 ca        1 LYA     -0.073300
      2 C2          0.9080    0.7910    0.1330 ca        1 LYA     -0.144000
      3 C3          1.6230    0.9070    1.3220 ca        1 LYA     -0.088500
      4 C4          1.0060    0.6210    2.5460 ca        1 LYA     -0.129600
      5 C5         -0.3390    0.2430    2.5680 ca        1 LYA     -0.088500
      6 C6         -1.0550    0.1380    1.3760 ca        1 LYA     -0.144000
      7 C7         -1.1830    0.2860   -1.1340 c3        1 LYA     -0.030100
      8 C8         -2.1340   -0.9020   -1.1630 c3        1 LYA     -0.027100
      9 C9         -2.3570   -1.3990   -2.5300 cc        1 LYA     -0.046300
     10 C10        -1.3940   -1.9670   -3.3750 cd        1 LYA     -0.171300
     11 N11        -1.9850   -2.3340   -4.5920 na        1 LYA     -0.188100
     12 C12        -3.3420   -2.0210   -4.5130 cd        1 LYA      0.107300
     13 C13        -3.6040   -1.4270   -3.2430 cc        1 LYA     -0.250600
     14 C14        -4.9590   -0.9840   -2.9330 c         1 LYA      0.746100
     15 O15        -5.2950   -0.4650   -1.8570 o         1 LYA     -0.539100
     16 N16        -5.9390   -1.1760   -3.9490 nc        1 LYA     -0.727100
     17 C17        -5.6210   -1.7070   -5.1190 cd        1 LYA      0.809100
     18 N18        -4.3440   -2.2700   -5.4550 na        1 LYA     -0.705600
     19 N19        -6.5860   -1.7470   -6.1720 nh        1 LYA     -0.881800
     20 C20         1.8290    0.7430    3.7910 c         1 LYA      0.643700
     21 O21         2.6970    1.6440    3.8750 o         1 LYA     -0.643100
     22 N22         1.5460   -0.1130    4.8320 n         1 LYA     -0.517900
     23 C23         2.5080   -0.3600    5.8930 c3        1 LYA     -0.070300
     24 C24         2.1570    0.3440    7.2070 c3        1 LYA     -0.076400
     25 C25         2.3410    1.8490    7.1450 c3        1 LYA     -0.188400
     26 C26         1.1040    2.6060    7.5110 c         1 LYA      0.637100
     27 O27         1.0050    3.5290    8.3260 o         1 LYA     -0.541000
     28 O28        -0.0790    2.3110    6.8930 oh        1 LYA     -0.602100
     29 C29         2.6480   -1.9030    6.2080 c         1 LYA      0.913600
     30 O30         1.8560   -2.7030    5.6380 o         1 LYA     -0.820800
     31 O31         3.5610   -2.2160    7.0130 o         1 LYA     -0.820800
     32 HC2         1.4040    1.0100   -0.8240 ha        1 LYA      0.129000
     33 HC3         2.6770    1.2270    1.3160 ha        1 LYA      0.148000
     34 HC5        -0.8460    0.0280    3.5220 ha        1 LYA      0.148000
     35 HC6        -2.1150   -0.1580    1.4010 ha        1 LYA      0.129000
     36 HC71       -1.7670    1.2310   -1.3000 hc        1 LYA      0.048700
     37 HC72       -0.4520    0.1990   -1.9840 hc        1 LYA      0.048700
     38 HC81       -3.1220   -0.6060   -0.7120 hc        1 LYA      0.073700
     39 HC82       -1.7140   -1.7360   -0.5360 hc        1 LYA      0.073700
     40 H10        -0.3290   -2.1320   -3.2050 h4        1 LYA      0.180000
     41 H11        -1.5390   -2.8140   -5.3270 hn        1 LYA      0.297700
     42 H18        -4.0870   -2.3370   -6.4140 hn        1 LYA      0.434800
     43 H191       -6.6700   -2.6500   -6.5910 hn        1 LYA      0.404800
     44 H192       -7.4750   -1.3840   -5.8880 hn        1 LYA      0.404800
     45 H22         0.0570    1.5840    6.2670 ho        1 LYA      0.442000
     46 H23         3.5250    0.0010    5.5620 h1        1 LYA      0.064700
     47 H241        2.8460   -0.0860    7.9840 hc        1 LYA      0.063700
     48 H242        1.1110    0.0820    7.5150 hc        1 LYA      0.063700
     49 H251        3.1630    2.1650    7.8400 hc        1 LYA      0.088200
     50 H252        2.6410    2.1660    6.1050 hc        1 LYA      0.088200
     51 H222        1.0080   -0.9330    4.6120 hn        1 LYA      0.328500
@<TRIPOS>BOND
     1    1    2 ar
     2    1    6 ar
     3    1    7 1
     4    2    3 ar
     5    2   32 1
     6    3    4 ar
     7    3   33 1
     8    4    5 ar
     9    4   20 1
    10    5    6 ar
    11    5   34 1
    12    6   35 1
    13    7    8 1
    14    7   36 1
    15    7   37 1
    16    8    9 1
    17    8   38 1
    18    8   39 1
    19    9   10 2
    20    9   13 1
    21   10   11 1
    22   10   40 1
    23   11   12 1
    24   11   41 1
    25   12   13 2
    26   12   18 1
    27   13   14 1
    28   14   15 2
    29   14   16 1
    30   16   17 2
    31   17   18 1
    32   17   19 1
    33   18   42 1
    34   19   43 1
    35   19   44 1
    36   20   21 2
    37   20   22 1
    38   22   23 1
    39   22   51 1
    40   23   24 1
    41   23   29 1
    42   23   46 1
    43   24   25 1
    44   24   47 1
    45   24   48 1
    46   25   26 1
    47   25   49 1
    48   25   50 1
    49   26   27 2
    50   26   28 1
    51   28   45 1
    52   29   30 1
    53   29   31 1
@<TRIPOS>SUBSTRUCTURE
     1 LYA         1 TEMP              0 ****  ****    0 ROOT
