@<TRIPOS>MOLECULE
LYC
   96    95     1     0     0
SMALL
bcc


@<TRIPOS>ATOM
      1 C1          4.4470    2.3330   -1.6960 c3        1 LYC     -0.058900
      2 C2          3.6620    1.5570   -2.6860 c2        1 LYC     -0.121400
      3 C3          3.8680    0.0890   -2.6730 c3        1 LYC     -0.058900
      4 C4          2.8120    2.1460   -3.5430 c2        1 LYC     -0.181200
      5 C5          2.5830    3.6080   -3.5860 c3        1 LYC     -0.042200
      6 C6          1.5250    3.9900   -4.6060 c3        1 LYC     -0.046200
      7 C7          1.2820    5.4600   -4.6180 c2        1 LYC     -0.095400
      8 C8          0.1260    5.9110   -3.8040 c3        1 LYC     -0.063900
      9 C9          2.0300    6.3420   -5.3080 ce        1 LYC     -0.148000
     10 C10         3.1780    6.0070   -6.1170 ce        1 LYC     -0.116000
     11 C11         3.8640    6.9320   -6.8140 cf        1 LYC     -0.127000
     12 C12         5.0240    6.6430   -7.6390 cf        1 LYC     -0.052300
     13 C13         5.5030    5.2390   -7.7370 c3        1 LYC     -0.058900
     14 C14         5.6430    7.6120   -8.2920 c1        1 LYC     -0.059900
     15 C15         6.2360    8.5290   -8.9150 c1        1 LYC     -0.037900
     16 C16         6.8810    9.4590   -9.5820 ce        1 LYC     -0.118100
     17 C17         6.5280   10.8710   -9.5820 ce        1 LYC     -0.006200
     18 C18         5.3510   11.2900   -8.7800 c3        1 LYC     -0.057900
     19 C19         7.2410   11.7450  -10.2790 cu        1 LYC     -0.175400
     20 C20         8.3610   12.0310  -11.1720 cx        1 LYC     -0.081200
     21 C21         7.4500   13.1480  -10.6820 cx        1 LYC     -0.043300
     22 C50         6.5280   13.7890  -11.6200 c2        1 LYC     -0.138200
     23 C51         5.7830   14.8720  -11.3250 ce        1 LYC     -0.079200
     24 C52         5.7990   15.5050   -9.9830 c3        1 LYC     -0.059900
     25 C53         4.8870   15.4330  -12.3310 ce        1 LYC     -0.123000
     26 C54         4.7930   16.7210  -12.6980 cf        1 LYC     -0.123000
     27 C55         5.6010   17.8010  -12.1840 cf        1 LYC     -0.140000
     28 C56         5.4310   19.1020  -12.5070 ce        1 LYC     -0.068200
     29 C57         4.3500   19.5690  -13.4090 c3        1 LYC     -0.061900
     30 C58         6.3080   20.1100  -11.9210 ce        1 LYC     -0.129000
     31 C59         6.9510   21.0940  -12.5690 cf        1 LYC     -0.119000
     32 C60         6.9280   21.3180  -13.9960 cf        1 LYC     -0.149000
     33 C61         7.4620   22.3940  -14.6060 c2        1 LYC     -0.099400
     34 C62         8.1330   23.4920  -13.8700 c3        1 LYC     -0.063900
     35 C63         7.4200   22.5270  -16.0910 c3        1 LYC     -0.044200
     36 C64         6.4080   23.5720  -16.5300 c3        1 LYC     -0.042200
     37 C65         6.3940   23.7450  -18.0010 c2        1 LYC     -0.179200
     38 C66         5.6550   24.6750  -18.6280 c2        1 LYC     -0.122400
     39 C67         5.6620   24.8160  -20.1030 c3        1 LYC     -0.058400
     40 C68         4.7870   25.6230  -17.8890 c3        1 LYC     -0.058400
     41 H11A        5.0460    3.1270   -2.2090 hc        1 LYC      0.041033
     42 H12         5.1460    1.6750   -1.1250 hc        1 LYC      0.041033
     43 H13         3.7610    2.8370   -0.9680 hc        1 LYC      0.041033
     44 H31         3.2310   -0.4250   -3.4330 hc        1 LYC      0.041033
     45 H32         3.6170   -0.3240   -1.6640 hc        1 LYC      0.041033
     46 H33         4.9390   -0.1490   -2.8900 hc        1 LYC      0.041033
     47 H4          2.2400    1.5420   -4.2660 ha        1 LYC      0.122000
     48 H51         2.2700    3.9720   -2.5680 hc        1 LYC      0.051200
     49 H52         3.5470    4.1340   -3.8340 hc        1 LYC      0.051200
     50 H61         1.8440    3.6420   -5.6250 hc        1 LYC      0.049200
     51 H62         0.5680    3.4530   -4.3630 hc        1 LYC      0.049200
     52 H81         0.2240    5.5280   -2.7570 hc        1 LYC      0.044033
     53 H82        -0.8250    5.5080   -4.2350 hc        1 LYC      0.044033
     54 H83         0.0510    7.0260   -3.7680 hc        1 LYC      0.044033
     55 H9          1.7690    7.4160   -5.2710 ha        1 LYC      0.124000
     56 H10         3.4800    4.9450   -6.1380 ha        1 LYC      0.128000
     57 H11         3.5580    7.9930   -6.7840 ha        1 LYC      0.130000
     58 H131        5.7790    4.8580   -6.7210 hc        1 LYC      0.048700
     59 H132        6.3980    5.1590   -8.4010 hc        1 LYC      0.048700
     60 H133        4.6940    4.5880   -8.1520 hc        1 LYC      0.048700
     61 H14        -0.2940    8.5250  -11.7270 ha        1 LYC      0.000000
     62 H15         0.3280    8.4010  -11.4930 ha        1 LYC      0.000000
     63 H16         7.7580    9.1760  -10.1950 ha        1 LYC      0.143000
     64 H181        5.2100   12.3980   -8.8150 hc        1 LYC      0.048033
     65 H182        4.4260   10.8000   -9.1750 hc        1 LYC      0.048033
     66 H183        5.4840   10.9780   -7.7140 hc        1 LYC      0.048033
     67 H19         8.3020   11.7160  -12.2310 hc        1 LYC      0.078200
     68 H20         9.3950   11.9800  -10.7830 hc        1 LYC      0.078200
     69 H21         7.8570   13.8430   -9.9140 hc        1 LYC      0.088700
     70 H50         6.4730   13.3320  -12.6230 ha        1 LYC      0.127000
     71 H521        5.0510   16.3330   -9.9170 hc        1 LYC      0.045033
     72 H522        6.8130   15.9260   -9.7610 hc        1 LYC      0.045033
     73 H523        5.5590   14.7460   -9.1960 hc        1 LYC      0.045033
     74 H53         4.2380   14.6860  -12.8260 ha        1 LYC      0.125000
     75 H54         4.0520   16.9990  -13.4700 ha        1 LYC      0.122000
     76 H55         6.4160   17.5120  -11.4950 ha        1 LYC      0.130000
     77 H571        3.3530   19.2440  -13.0200 hc        1 LYC      0.045700
     78 H572        4.3480   20.6840  -13.4940 hc        1 LYC      0.045700
     79 H573        4.4810   19.1380  -14.4340 hc        1 LYC      0.045700
     80 H58         6.4410   20.0140  -10.8280 ha        1 LYC      0.124000
     81 H59         7.5750   21.7950  -11.9830 ha        1 LYC      0.121000
     82 H60         6.4430   20.5290  -14.6000 ha        1 LYC      0.130000
     83 H621        8.4260   24.3230  -14.5580 hc        1 LYC      0.043700
     84 H622        9.0580   23.1120  -13.3670 hc        1 LYC      0.043700
     85 H623        7.4560   23.9110  -13.0830 hc        1 LYC      0.043700
     86 H631        7.1620   21.5430  -16.5650 hc        1 LYC      0.048200
     87 H632        8.4400   22.8170  -16.4620 hc        1 LYC      0.048200
     88 H641        6.6430   24.5550  -16.0360 hc        1 LYC      0.050200
     89 H642        5.3830   23.2700  -16.1790 hc        1 LYC      0.050200
     90 H65         7.0320   23.0550  -18.5780 ha        1 LYC      0.122000
     91 H671        5.9790   25.8500  -20.3880 hc        1 LYC      0.040533
     92 H672        4.6340   24.6420  -20.5100 hc        1 LYC      0.040533
     93 H673        6.3590   24.0880  -20.5850 hc        1 LYC      0.040533
     94 H681        4.0990   25.0690  -17.2010 hc        1 LYC      0.040533
     95 H682        5.4110   26.3130  -17.2660 hc        1 LYC      0.040533
     96 H683        4.1700   26.2390  -18.5870 hc        1 LYC      0.040533
@<TRIPOS>BOND
     1    1    2 1   
     2    1   41 1   
     3    1   42 1   
     4    1   43 1   
     5    2    3 1   
     6    2    4 2   
     7    3   44 1   
     8    3   45 1   
     9    3   46 1   
    10    4    5 1   
    11    4   47 1   
    12    5    6 1   
    13    5   48 1   
    14    5   49 1   
    15    6    7 1   
    16    6   50 1   
    17    6   51 1   
    18    7    8 1   
    19    7    9 2   
    20    8   52 1   
    21    8   53 1   
    22    8   54 1   
    23    9   10 1   
    24    9   55 1   
    25   10   11 2   
    26   10   56 1   
    27   11   12 1   
    28   11   57 1   
    29   12   13 1   
    30   12   14 2   
    31   13   58 1   
    32   13   59 1   
    33   13   60 1   
    34   14   15 2   
    35   15   16 2   
    36   16   17 1   
    37   16   63 1   
    38   17   18 1   
    39   17   19 2   
    40   18   64 1   
    41   18   65 1   
    42   18   66 1   
    43   19   20 1   
    44   19   21 1   
    45   20   21 1   
    46   20   67 1   
    47   20   68 1   
    48   21   22 1   
    49   21   69 1   
    50   22   23 2   
    51   22   70 1   
    52   23   24 1   
    53   23   25 1   
    54   24   71 1   
    55   24   72 1   
    56   24   73 1   
    57   25   26 2   
    58   25   74 1   
    59   26   27 1   
    60   26   75 1   
    61   27   28 2   
    62   27   76 1   
    63   28   29 1   
    64   28   30 1   
    65   29   77 1   
    66   29   78 1   
    67   29   79 1   
    68   30   31 2   
    69   30   80 1   
    70   31   32 1   
    71   31   81 1   
    72   32   33 2   
    73   32   82 1   
    74   33   34 1   
    75   33   35 1   
    76   34   83 1   
    77   34   84 1   
    78   34   85 1   
    79   35   36 1   
    80   35   86 1   
    81   35   87 1   
    82   36   37 1   
    83   36   88 1   
    84   36   89 1   
    85   37   38 2   
    86   37   90 1   
    87   38   39 1   
    88   38   40 1   
    89   39   91 1   
    90   39   92 1   
    91   39   93 1   
    92   40   94 1   
    93   40   95 1   
    94   40   96 1   
    95   61   62 1   
@<TRIPOS>SUBSTRUCTURE
     1 LYC         1 TEMP              0 ****  ****    0 ROOT
