@<TRIPOS>MOLECULE
molecule
   96    95     1     0     0
SMALL
bcc


@<TRIPOS>ATOM
      1 C1           0.0000     0.0000     0.0000 c3         1 LYC      -0.052900
      2 C2           1.5190     0.0000     0.0000 c2         1 LYC      -0.121900
      3 C3           2.0790     0.0000     1.3820 c3         1 LYC      -0.052900
      4 C4           2.1290     0.2600    -1.1720 c2         1 LYC      -0.183700
      5 C5           3.3390     1.0910    -1.5400 c3         1 LYC      -0.021700
      6 C6           3.2510     2.2250    -2.6000 c3         1 LYC      -0.053200
      7 C7           2.9540     2.3090    -4.1230 c2         1 LYC       0.031100
      8 C8           2.5520     1.1470    -4.9890 c3         1 LYC      -0.098900
      9 C9           3.2870     3.5090    -4.6430 ce         1 LYC      -0.347000
     10 C10          3.2470     3.9900    -6.0180 ce         1 LYC      -0.099500
     11 C11          3.8490     5.1620    -6.3210 cf         1 LYC      -0.135000
     12 C12          3.9540     5.8290    -7.6420 cf         1 LYC       0.054300
     13 C13          3.6970     4.9070    -8.7900 c3         1 LYC      -0.104900
     14 C14          4.4230     7.0890    -7.7170 ce         1 LYC      -0.330000
     15 C15          4.8510     7.7750    -8.9410 ce         1 LYC      -0.091000
     16 C16          5.1450     9.0780    -9.0120 cf         1 LYC      -0.125500
     17 C17          5.5630     9.8780   -10.1910 cf         1 LYC       0.012800
     18 C18          5.6770     9.1960   -11.5440 c3         1 LYC      -0.093900
     19 C19          5.6170    11.2030   -10.0110 ce         1 LYC      -0.306000
     20 C20          6.1210    12.2040   -10.9420 ce         1 LYC      -0.088500
     21 C21          6.0560    13.4810   -10.5890 cf         1 LYC      -0.088500
     22 C50          6.2400    14.5990   -11.5200 cf         1 LYC      -0.306000
     23 C51          6.1280    15.9190   -11.2050 ce         1 LYC       0.012800
     24 C52          5.8860    16.4820    -9.8080 c3         1 LYC      -0.093900
     25 C53          6.5140    16.9670   -12.1960 ce         1 LYC      -0.125500
     26 C54          6.3220    18.2980   -12.0920 cf         1 LYC      -0.091000
     27 C55          6.8760    19.2790   -13.0280 cf         1 LYC      -0.330000
     28 C56          6.7810    20.6150   -12.8960 ce         1 LYC       0.054300
     29 C57          6.3090    21.3580   -11.6570 c3         1 LYC      -0.104900
     30 C58          7.3100    21.4840   -13.9750 ce         1 LYC      -0.135000
     31 C59          6.8710    22.7230   -14.2560 cf         1 LYC      -0.099500
     32 C60          7.4220    23.5340   -15.3410 cf         1 LYC      -0.347000
     33 C61          7.1110    24.8300   -15.5700 c2         1 LYC       0.031100
     34 C62          6.3670    25.7910   -14.6250 c3         1 LYC      -0.098900
     35 C63          7.6870    25.4930   -16.8060 c3         1 LYC      -0.053200
     36 C64          6.6320    25.5400   -17.8630 c3         1 LYC      -0.021700
     37 C65          7.1990    26.0400   -19.1340 c2         1 LYC      -0.183700
     38 C66          6.5430    26.5020   -20.2100 c2         1 LYC      -0.121900
     39 C67          7.3710    26.8560   -21.4410 c3         1 LYC      -0.052900
     40 C68          5.0480    26.4150   -20.4200 c3         1 LYC      -0.052900
     41 H11A        -0.3610    -0.4510     0.9160 hc         1 LYC       0.041117
     42 H12         -0.3610     1.0190    -0.0680 hc         1 LYC       0.041117
     43 H13         -0.3610    -0.5680    -0.8490 hc         1 LYC       0.041117
     44 H31          3.1610    -0.0230     1.3330 hc         1 LYC       0.041117
     45 H32          1.7590     0.8960     1.9010 hc         1 LYC       0.041117
     46 H33          1.7230    -0.8730     1.9150 hc         1 LYC       0.041117
     47 H4           1.4250     0.3460    -1.9910 ha         1 LYC       0.109500
     48 H51          3.6990     1.5430    -0.6240 hc         1 LYC       0.050200
     49 H52          4.1020     0.4010    -1.8800 hc         1 LYC       0.050200
     50 H61          4.2100     2.7210    -2.5080 hc         1 LYC       0.052950
     51 H62          2.5280     2.9080    -2.1700 hc         1 LYC       0.052950
     52 H81          3.2220     1.0810    -5.8380 hc         1 LYC       0.052033
     53 H82          1.5370     1.2920    -5.3400 hc         1 LYC       0.052033
     54 H83          2.6070     0.2310    -4.4130 hc         1 LYC       0.052033
     55 H9           3.6990     4.2270    -3.9440 ha         1 LYC       0.202500
     56 H10          2.7580     3.4090    -6.7910 ha         1 LYC       0.102000
     57 H11          4.3340     5.6850    -5.5050 ha         1 LYC       0.145500
     58 H131         3.7530     5.4630    -9.7180 hc         1 LYC       0.049700
     59 H132         2.7100     4.4710    -8.6890 hc         1 LYC       0.049700
     60 H133         4.4410     4.1200    -8.7950 hc         1 LYC       0.049700
     61 H14          4.6980     7.5720    -6.7870 ha         1 LYC       0.199000
     62 H15          4.9140     7.1840    -9.8470 ha         1 LYC       0.093500
     63 H16          5.0560     9.6430    -8.0920 ha         1 LYC       0.141500
     64 H181         6.2560     8.2860   -11.4420 hc         1 LYC       0.048533
     65 H182         6.1700     9.8600   -12.2430 hc         1 LYC       0.048533
     66 H183         4.6870     8.9540   -11.9120 hc         1 LYC       0.048533
     67 H19          5.3470    11.5760    -9.0300 ha         1 LYC       0.195000
     68 H20          6.3190    11.9350   -11.9720 ha         1 LYC       0.116500
     69 H21          5.6400    13.7180    -9.6170 ha         1 LYC       0.116500
     70 H50          6.9210    14.4110   -10.6990 ha         1 LYC       0.195000
     71 H521         4.9540    17.0330    -9.7970 hc         1 LYC       0.048533
     72 H522         5.8340    15.6680    -9.0950 hc         1 LYC       0.048533
     73 H523         6.7000    17.1450    -9.5400 hc         1 LYC       0.048533
     74 H53          7.1110    16.6200   -13.0310 ha         1 LYC       0.141500
     75 H54          5.8310    18.6780   -11.2040 ha         1 LYC       0.093500
     76 H55          7.3810    19.1040   -12.0850 ha         1 LYC       0.199000
     77 H571         6.8780    22.2740   -11.5480 hc         1 LYC       0.049700
     78 H572         5.2570    21.5960   -11.7560 hc         1 LYC       0.049700
     79 H573         6.4580    20.7350   -10.7830 hc         1 LYC       0.049700
     80 H58          8.1080    21.0780   -14.5840 ha         1 LYC       0.145500
     81 H59          6.0680    23.1410   -13.6610 ha         1 LYC       0.102000
     82 H60          7.8220    23.6650   -14.3420 ha         1 LYC       0.202500
     83 H621         6.4070    26.7960   -15.0270 hc         1 LYC       0.052033
     84 H622         6.8380    25.7740   -13.6490 hc         1 LYC       0.052033
     85 H623         5.3340    25.4790   -14.5330 hc         1 LYC       0.052033
     86 H631         8.0040    26.5010   -16.5640 hc         1 LYC       0.052950
     87 H632         8.5350    24.9220   -17.1630 hc         1 LYC       0.052950
     88 H641         6.2340    24.5440   -18.0160 hc         1 LYC       0.050200
     89 H642         5.8340    26.1990   -17.5440 hc         1 LYC       0.050200
     90 H65          8.2760    25.9560   -19.2190 ha         1 LYC       0.109500
     91 H671         7.0240    26.2770   -22.2890 hc         1 LYC       0.041117
     92 H672         8.4140    26.6290   -21.2530 hc         1 LYC       0.041117
     93 H673         7.2650    27.9120   -21.6580 hc         1 LYC       0.041117
     94 H681         4.7350    25.3800   -20.3670 hc         1 LYC       0.041117
     95 H682         4.5410    26.9850   -19.6510 hc         1 LYC       0.041117
     96 H683         4.7960    26.8190   -21.3940 hc         1 LYC       0.041117
@<TRIPOS>BOND
     1     1     2 1
     2     1    41 1
     3     1    42 1
     4     1    43 1
     5     2     3 1
     6     2     4 2
     7     3    44 1
     8     3    45 1
     9     3    46 1
    10     4     5 1
    11     4    47 1
    12     5     6 1
    13     5    48 1
    14     5    49 1
    15     6     7 1
    16     6    50 1
    17     6    51 1
    18     7     8 1
    19     7     9 2
    20     8    52 1
    21     8    53 1
    22     8    54 1
    23     9    10 1
    24     9    55 1
    25    10    11 2
    26    10    56 1
    27    11    12 1
    28    11    57 1
    29    12    13 1
    30    12    14 2
    31    13    58 1
    32    13    59 1
    33    13    60 1
    34    14    15 1
    35    14    61 1
    36    15    16 2
    37    15    62 1
    38    16    17 1
    39    16    63 1
    40    17    18 1
    41    17    19 2
    42    18    64 1
    43    18    65 1
    44    18    66 1
    45    19    20 1
    46    19    67 1
    47    20    21 2
    48    20    68 1
    49    21    22 1
    50    21    69 1
    51    22    23 2
    52    22    70 1
    53    23    24 1
    54    23    25 1
    55    24    71 1
    56    24    72 1
    57    24    73 1
    58    25    26 2
    59    25    74 1
    60    26    27 1
    61    26    75 1
    62    27    28 2
    63    27    76 1
    64    28    29 1
    65    28    30 1
    66    29    77 1
    67    29    78 1
    68    29    79 1
    69    30    31 2
    70    30    80 1
    71    31    32 1
    72    31    81 1
    73    32    33 2
    74    32    82 1
    75    33    34 1
    76    33    35 1
    77    34    83 1
    78    34    84 1
    79    34    85 1
    80    35    36 1
    81    35    86 1
    82    35    87 1
    83    36    37 1
    84    36    88 1
    85    36    89 1
    86    37    38 2
    87    37    90 1
    88    38    39 1
    89    38    40 1
    90    39    91 1
    91    39    92 1
    92    39    93 1
    93    40    94 1
    94    40    95 1
    95    40    96 1
@<TRIPOS>SUBSTRUCTURE
     1 LYC         1 TEMP              0 ****  ****    0 ROOT
