@<TRIPOS>MOLECULE
LYD
   52    54     1     0     0
SMALL
bcc


@<TRIPOS>ATOM
      1 C5'         0.0390    0.4350   -0.1280 ca        1 LYD     -0.145000
      2 C4'         1.3940    0.7760   -0.0130 ca        1 LYD     -0.010300
      3 C3'         1.8300    1.4960    1.1070 ca        1 LYD     -0.145000
      4 C2'         0.9270    1.8670    2.0950 ca        1 LYD     -0.065000
      5 C1'        -0.4320    1.5200    1.9800 ca        1 LYD     -0.205600
      6 C6'        -0.8730    0.7990    0.8590 ca        1 LYD     -0.065000
      7 C9         -1.3130    1.9630    3.0630 c         1 LYD      0.572700
      8 O9         -0.9790    2.6460    4.0350 o         1 LYD     -0.502100
      9 N          -2.7560    1.5950    3.0130 n4        1 LYD     -0.663800
     10 CA         -3.0150    0.1480    3.3360 c3        1 LYD     -0.044500
     11 CB         -3.7030   -0.0710    4.6880 c3        1 LYD     -0.062700
     12 CG1        -3.4020   -1.4850    5.1550 c3        1 LYD     -0.108100
     13 CG2        -3.2950    0.9170    5.7620 c3        1 LYD     -0.108100
     14 C8          2.3450    0.3800   -1.0870 c3        1 LYD     -0.050100
     15 C7          2.6790   -1.1050   -1.0090 c3        1 LYD     -0.005100
     16 C5          3.2310   -1.6060   -2.2760 cc        1 LYD     -0.068300
     17 C          -3.8900   -0.4840    2.1510 c         1 LYD      0.926600
     18 OX1        -4.0910    0.2860    1.1680 o         1 LYD     -0.762800
     19 OX2        -4.2490   -1.6640    2.2930 o         1 LYD     -0.762800
     20 C6          4.5220   -2.1020   -2.4940 cd        1 LYD     -0.160300
     21 N7          4.6530   -2.5250   -3.8230 na        1 LYD     -0.166100
     22 C7A         3.4400   -2.3070   -4.4710 cd        1 LYD      0.201100
     23 C4A         2.5310   -1.7230   -3.5250 cc        1 LYD     -0.280600
     24 C4          1.1920   -1.4040   -3.9490 c         1 LYD      0.755100
     25 O4          0.2840   -0.8810   -3.2760 o         1 LYD     -0.642500
     26 N3          0.9050   -1.7160   -5.3030 n         1 LYD     -0.504400
     27 C2          1.8590   -2.3160   -6.1520 cc        1 LYD      0.680800
     28 N1          3.1350   -2.5890   -5.7950 nd        1 LYD     -0.681100
     29 N2          1.4230   -2.7020   -7.4400 nh        1 LYD     -0.891800
     30 H5'        -0.3030   -0.1260   -1.0180 ha        1 LYD      0.165000
     31 H3'         2.8910    1.7720    1.2040 ha        1 LYD      0.165000
     32 H2'         1.2690    2.4360    2.9760 ha        1 LYD      0.173000
     33 H6'        -1.9330    0.4980    0.7300 ha        1 LYD      0.173000
     34 HN         -3.1300    1.7400    2.0410 hn        1 LYD      0.466800
     35 HCA        -2.0240   -0.3860    3.3200 hx        1 LYD      0.090700
     36 HCB        -4.8150    0.0130    4.5210 hc        1 LYD      0.074700
     37 HG11       -4.0060   -1.7150    6.0660 hc        1 LYD      0.046200
     38 HG12       -3.6670   -2.2200    4.3520 hc        1 LYD      0.046200
     39 HG13       -2.3210   -1.5930    5.4080 hc        1 LYD      0.046200
     40 HG21       -3.5680    0.5130    6.7680 hc        1 LYD      0.046200
     41 HG22       -2.1920    1.0980    5.7500 hc        1 LYD      0.046200
     42 HG23       -3.8220    1.8950    5.6450 hc        1 LYD      0.046200
     43 HC81        1.8690    0.5920   -2.0850 hc        1 LYD      0.067200
     44 HC82        3.2880    0.9840   -1.0200 hc        1 LYD      0.067200
     45 HC71        3.4030   -1.2860   -0.1720 hc        1 LYD      0.058700
     46 HC72        1.7370   -1.6790   -0.7790 hc        1 LYD      0.058700
     47 HC6         5.3590   -2.1900   -1.8010 h4        1 LYD      0.173000
     48 HN7         5.4570   -2.9270   -4.2290 hn        1 LYD      0.310700
     49 HN3        -0.0330   -1.5850   -5.6140 hn        1 LYD      0.336500
     50 HN21        2.1470   -3.0210   -8.0470 hn        1 LYD      0.420300
     51 HN22        0.7690   -2.0890   -7.8730 hn        1 LYD      0.420300
     52 HN31       -3.2800    2.1920    3.6590 hn        1 LYD      0.466800
@<TRIPOS>BOND
     1    1    2 ar  
     2    1    6 ar  
     3    1   30 1   
     4    2    3 ar  
     5    2   14 1   
     6    3    4 ar  
     7    3   31 1   
     8    4    5 ar  
     9    4   32 1   
    10    5    6 ar  
    11    5    7 1   
    12    6   33 1   
    13    7    8 2   
    14    7    9 1   
    15    9   10 1   
    16    9   34 1   
    17    9   52 1   
    18   10   11 1   
    19   10   17 1   
    20   10   35 1   
    21   11   12 1   
    22   11   13 1   
    23   11   36 1   
    24   12   37 1   
    25   12   38 1   
    26   12   39 1   
    27   13   40 1   
    28   13   41 1   
    29   13   42 1   
    30   14   15 1   
    31   14   43 1   
    32   14   44 1   
    33   15   16 1   
    34   15   45 1   
    35   15   46 1   
    36   16   20 2   
    37   16   23 1   
    38   17   18 1   
    39   17   19 1   
    40   20   21 1   
    41   20   47 1   
    42   21   22 1   
    43   21   48 1   
    44   22   23 2   
    45   22   28 1   
    46   23   24 1   
    47   24   25 2   
    48   24   26 1   
    49   26   27 1   
    50   26   49 1   
    51   27   28 2   
    52   27   29 1   
    53   29   50 1   
    54   29   51 1   
@<TRIPOS>SUBSTRUCTURE
     1 LYD         1 TEMP              0 ****  ****    0 ROOT
