@<TRIPOS>MOLECULE
molecule
   36    39     1     0     0
SMALL
bcc


@<TRIPOS>ATOM
      1 C1           0.0000     0.0000     0.0000 c3         1 LYG       0.142100
      2 N1           0.7700    -0.5820     2.1940 n3         1 LYG      -0.673600
      3 O1          -0.4960     1.1720    -0.6510 oh         1 LYG      -0.604800
      4 S1           5.3030    -3.1610     6.0990 ss         1 LYG       0.015500
      5 Cl1          5.7380    -5.0700     0.1550 cl         1 LYG      -0.102400
      6 C2           1.5430     0.0000     0.0000 c3         1 LYG      -0.096400
      7 N2           2.6660    -1.7110     3.6400 nc         1 LYG      -0.613300
      8 O2           3.2450    -1.1600     7.4960 o          1 LYG      -0.631500
      9 C3           1.9430     0.0000     1.4910 c3         1 LYG       0.140800
     10 N3           2.0730    -0.7130     5.6500 ns         1 LYG      -0.454400
     11 C4           0.7700    -0.2090     3.6150 c3         1 LYG       0.122500
     12 C5           1.8950    -0.9190     4.3210 cd         1 LYG       0.492900
     13 C6           3.6990    -2.3790     4.2210 cc         1 LYG       0.219400
     14 C7           4.6520    -3.3020     3.5910 ca         1 LYG      -0.063800
     15 C8           4.7110    -3.7040     2.2390 ca         1 LYG      -0.060000
     16 C9           5.6770    -4.5840     1.8200 ca         1 LYG       0.012400
     17 C10          6.6060    -5.0860     2.7220 ca         1 LYG      -0.098000
     18 C11          6.5640    -4.7050     4.0420 ca         1 LYG      -0.097000
     19 C12          5.5850    -3.8090     4.4900 ca         1 LYG      -0.012100
     20 C13          3.9270    -2.2080     5.5690 cd         1 LYG      -0.191600
     21 C14          3.0740    -1.3370     6.3020 c          1 LYG       0.726700
     22 C15         -0.4020    -0.0010     1.4900 c3         1 LYG       0.123800
     23 H1          -0.3730    -0.8930    -0.4870 h1         1 LYG       0.046700
     24 HO1         -1.0830     0.9220    -1.3450 ho         1 LYG       0.404000
     25 H2           1.9180     0.8910    -0.4890 hc         1 LYG       0.061700
     26 H2A          1.9180    -0.8910    -0.4890 hc         1 LYG       0.061700
     27 H3           2.8190    -0.6180     1.6460 h1         1 LYG       0.055700
     28 H3A          2.1220     1.0120     1.8330 h1         1 LYG       0.055700
     29 HN3          1.4620    -0.0960     6.1470 hn         1 LYG       0.342500
     30 H4           0.9040     0.8620     3.7070 h1         1 LYG       0.058200
     31 H4A         -0.1740    -0.4940     4.0630 h1         1 LYG       0.058200
     32 H8           3.9880    -3.3200     1.5300 ha         1 LYG       0.162000
     33 H10          7.3660    -5.7800     2.3840 ha         1 LYG       0.149000
     34 H11          7.2920    -5.1010     4.7400 ha         1 LYG       0.145000
     35 H15         -1.2780    -0.6200     1.6430 h1         1 LYG       0.051700
     36 H15A        -0.5820     1.0120     1.8320 h1         1 LYG       0.051700
@<TRIPOS>BOND
     1    22     1 1
     2     3     1 1
     3     1     6 1
     4     1    23 1
     5    11     2 1
     6    22     2 1
     7     2     9 1
     8     3    24 1
     9     4    19 1
    10     4    20 1
    11    16     5 1
    12     9     6 1
    13     6    25 1
    14     6    26 1
    15    13     7 1
    16    12     7 2
    17     8    21 2
    18     9    27 1
    19     9    28 1
    20    21    10 1
    21    10    12 1
    22    10    29 1
    23    12    11 1
    24    11    30 1
    25    11    31 1
    26    20    13 2
    27    14    13 1
    28    19    14 ar
    29    14    15 ar
    30    16    15 ar
    31    15    32 1
    32    17    16 ar
    33    18    17 ar
    34    17    33 1
    35    18    19 ar
    36    18    34 1
    37    21    20 1
    38    22    35 1
    39    22    36 1
@<TRIPOS>SUBSTRUCTURE
     1 LYG         1 TEMP              0 ****  ****    0 ROOT
