@<TRIPOS>MOLECULE
LYJ
   27    26     1     0     0
SMALL
bcc


@<TRIPOS>ATOM
      1 C            0.0000     0.0000     0.0000 c3         1 LYJ       0.219400
      2 N            2.0200     1.2000    -0.6920 nz         1 LYJ       0.066400
      3 O           -0.4770    -0.1170    -1.3410 oh         1 LYJ      -0.605800
      4 CA           1.5300     0.0000     0.0000 c3         1 LYJ      -0.080500
      5 CB           2.0410     0.0000     1.4420 c3         1 LYJ      -0.037400
      6 CD           4.0760    -0.1260     2.8850 c3         1 LYJ      -0.028400
      7 CE           5.6020    -0.2520     2.8860 c3         1 LYJ      -0.049200
      8 CG           3.5660    -0.1260     1.4420 c3         1 LYJ      -0.027400
      9 NZ           6.0920    -0.2530     4.2710 nz         1 LYJ       0.094400
     10 H           -0.3610     0.9250     0.4320 h1         1 LYJ       0.028700
     11 HA          -0.3610    -0.8370     0.5860 h1         1 LYJ       0.028700
     12 HN           2.4110     1.8340    -0.0240 hn         1 LYJ       0.233467
     13 HNA          1.2590     1.6440    -1.1680 hn         1 LYJ       0.233467
     14 HO          -1.3990    -0.3140    -1.3300 ho         1 LYJ       0.456000
     15 HAA          1.8910    -0.8840    -0.5110 hx         1 LYJ       0.106700
     16 HB           1.7550     0.9260     1.9260 hc         1 LYJ       0.058700
     17 HBA          1.6100    -0.8370     1.9780 hc         1 LYJ       0.058700
     18 HD           3.6450    -0.9630     3.4200 hc         1 LYJ       0.044700
     19 HDA          3.7900     0.7990     3.3690 hc         1 LYJ       0.044700
     20 HE           6.0340     0.5850     2.3500 hx         1 LYJ       0.088200
     21 HEA          5.8880    -1.1780     2.4010 hx         1 LYJ       0.088200
     22 HG           3.8520    -1.0510     0.9570 hc         1 LYJ       0.025700
     23 HGA          3.9970     0.7110     0.9070 hc         1 LYJ       0.025700
     24 HNZ          7.0890    -0.3350     4.2720 hn         1 LYJ       0.231800
     25 HNZA         5.6930    -1.0260     4.7650 hn         1 LYJ       0.231800
     26 HN3          2.7220     0.9390    -1.3550 hn         1 LYJ       0.233467
     27 HZ3          5.8450     0.6110     4.7120 hn         1 LYJ       0.231800
@<TRIPOS>BOND
     1     1     3 1   
     2     1     4 1   
     3     1    10 1   
     4     1    11 1   
     5     2     4 1   
     6     2    12 1   
     7     2    13 1   
     8     2    26 1   
     9     3    14 1   
    10     4     5 1   
    11     4    15 1   
    12     5     8 1   
    13     5    16 1   
    14     5    17 1   
    15     6     7 1   
    16     6     8 1   
    17     6    18 1   
    18     6    19 1   
    19     7     9 1   
    20     7    20 1   
    21     7    21 1   
    22     8    22 1   
    23     8    23 1   
    24     9    24 1   
    25     9    25 1   
    26     9    27 1   
@<TRIPOS>SUBSTRUCTURE
     1 LYJ         1 TEMP              0 ****  ****    0 ROOT
