@<TRIPOS>MOLECULE
LYL
   23    23     1     0     0
SMALL
bcc


@<TRIPOS>ATOM
      1 C1          0.1160    0.0610   -0.1020 ca        1 LYL     -0.094300
      2 C2          1.5070   -0.1460    0.0040 ca        1 LYL      0.130100
      3 C3         -0.6200    0.2560    1.0690 ca        1 LYL     -0.103000
      4 C4         -0.5660    0.0590   -1.4270 c3        1 LYL     -0.003900
      5 C5          2.1490   -0.1540    1.2580 ca        1 LYL     -0.157300
      6 C15         3.6100   -0.3700    1.3690 c3        1 LYL     -0.054800
      7 O6          2.1870   -0.3490   -1.1770 oh        1 LYL     -0.501100
      8 C7          0.0040    0.2520    2.3150 ca        1 LYL     -0.159000
      9 C8          1.3790    0.0500    2.4070 ca        1 LYL     -0.095000
     10 C13        -1.1580    1.3820   -1.7570 c2        1 LYL     -0.158200
     11 C14        -1.0770    1.9480   -2.9580 c2        1 LYL     -0.223000
     12 HC3        -1.7070    0.4150    0.9990 ha        1 LYL      0.134000
     13 HC41       -1.3940   -0.7050   -1.4040 hc        1 LYL      0.063200
     14 HC42        0.1540   -0.2590   -2.2300 hc        1 LYL      0.063200
     15 H151        3.8950   -1.3630    0.9360 hc        1 LYL      0.044367
     16 H152        3.9390   -0.3510    2.4370 hc        1 LYL      0.044367
     17 H153        4.1690    0.4290    0.8200 hc        1 LYL      0.044367
     18 HO6         3.1290   -0.4420   -0.9760 ho        1 LYL      0.420000
     19 HC7        -0.5900    0.4080    3.2270 ha        1 LYL      0.133000
     20 HC8         1.8670    0.0480    3.3930 ha        1 LYL      0.131000
     21 H13        -1.6900    1.8760   -0.9260 ha        1 LYL      0.118000
     22 H141       -0.5450    1.4850   -3.8000 ha        1 LYL      0.111000
     23 H142       -1.5400    2.9180   -3.1800 ha        1 LYL      0.111000
@<TRIPOS>BOND
     1    1    2 ar  
     2    1    3 ar  
     3    1    4 1   
     4    2    5 ar  
     5    2    7 1   
     6    3    8 ar  
     7    3   12 1   
     8    4   10 1   
     9    4   13 1   
    10    4   14 1   
    11    5    6 1   
    12    5    9 ar  
    13    6   15 1   
    14    6   16 1   
    15    6   17 1   
    16    7   18 1   
    17    8    9 ar  
    18    8   19 1   
    19    9   20 1   
    20   10   11 2   
    21   10   21 1   
    22   11   22 1   
    23   11   23 1   
@<TRIPOS>SUBSTRUCTURE
     1 LYL         1 TEMP              0 ****  ****    0 ROOT
