@<TRIPOS>MOLECULE
molecule
   23    23     1     0     0
SMALL
bcc


@<TRIPOS>ATOM
      1 C1           0.0000     0.0000     0.0000 ca         1 LYL      -0.091300
      2 C2           1.3860     0.0000     0.0000 ca         1 LYL       0.107100
      3 C3          -0.6910     0.0100     1.1960 ca         1 LYL      -0.119000
      4 C4          -0.7550    -0.0070    -1.3050 c3         1 LYL       0.003100
      5 C5           2.0770     0.0000     1.2020 ca         1 LYL      -0.109300
      6 C15          3.5840    -0.0050     1.2060 c3         1 LYL      -0.044800
      7 O6           2.0680    -0.0100    -1.1760 oh         1 LYL      -0.516100
      8 C7           0.0010     0.0160     2.3930 ca         1 LYL      -0.132000
      9 C8           1.3840     0.0110     2.3970 ca         1 LYL      -0.119000
     10 C13         -1.0010     1.4100    -1.7500 c2         1 LYL      -0.167200
     11 C14         -0.5260     1.8290    -2.8960 c2         1 LYL      -0.212000
     12 HC3         -1.7740     0.0120     1.1960 ha         1 LYL       0.133000
     13 HC41        -1.7030    -0.5130    -1.1710 hc         1 LYL       0.053200
     14 HC42        -0.1720    -0.5250    -2.0560 hc         1 LYL       0.053200
     15 H151         3.9490     0.7470     0.5170 hc         1 LYL       0.045367
     16 H152         3.9430    -0.9800     0.9000 hc         1 LYL       0.045367
     17 H153         3.9440     0.2150     2.2040 hc         1 LYL       0.045367
     18 HO6          2.3650    -0.8860    -1.3590 ho         1 LYL       0.415000
     19 HC7         -0.5420     0.0240     3.3310 ha         1 LYL       0.130000
     20 HC8          1.9230     0.0130     3.3360 ha         1 LYL       0.132000
     21 H13         -1.5710     2.0840    -1.1210 ha         1 LYL       0.123000
     22 H141        -0.7040     2.8490    -3.2160 ha         1 LYL       0.112500
     23 H142         0.0440     1.1550    -3.5250 ha         1 LYL       0.112500
@<TRIPOS>BOND
     1     1     2 ar
     2     1     3 ar
     3     1     4 1
     4     2     5 ar
     5     2     7 1
     6     3     8 ar
     7     3    12 1
     8     4    10 1
     9     4    13 1
    10     4    14 1
    11     5     6 1
    12     5     9 ar
    13     6    15 1
    14     6    16 1
    15     6    17 1
    16     7    18 1
    17     8     9 ar
    18     8    19 1
    19     9    20 1
    20    10    11 2
    21    10    21 1
    22    11    22 1
    23    11    23 1
@<TRIPOS>SUBSTRUCTURE
     1 LYL         1 TEMP              0 ****  ****    0 ROOT
