@<TRIPOS>MOLECULE
LYP
   36    35     1     0     0
SMALL
bcc


@<TRIPOS>ATOM
      1 N            0.0000     0.0000     0.0000 nz         1 LYP       0.082400
      2 CA           1.4690     0.0000     0.0000 c3         1 LYP      -0.203500
      3 CB           1.9790     0.0000     1.4420 c3         1 LYP      -0.021400
      4 CG           1.5740     1.3080     2.1260 c3         1 LYP      -0.045400
      5 CD           2.0840     1.3080     3.5680 c3         1 LYP      -0.030400
      6 CE           1.6800     2.6160     4.2510 c3         1 LYP       0.154800
      7 NZ           2.1690     2.6170     5.6370 n3         1 LYP      -0.539600
      8 CM           1.4970     1.5830     6.4340 c3         1 LYP       0.166100
      9 C            1.9710    -1.2310    -0.7110 c          1 LYP       0.957600
     10 O            3.2240    -1.2640    -1.1900 o          1 LYP      -0.818800
     11 CCA          2.5840     5.3550     8.2300 c3         1 LYP       0.007900
     12 CCC          2.7500     3.9750     7.5900 c3         1 LYP      -0.036400
     13 CCD          2.0100     3.9410     6.2510 c3         1 LYP       0.152800
     14 OXT          1.2460    -2.1880    -0.8490 o          1 LYP      -0.818800
     15 HN1         -0.3340     0.9170     0.2220 hn         1 LYP       0.210467
     16 HN2         -0.3340    -0.2660    -0.9050 hn         1 LYP       0.210467
     17 HA           1.8300     0.8840    -0.5110 hx         1 LYP       0.086700
     18 HBC1         3.0580    -0.0890     1.4430 hc         1 LYP       0.055200
     19 HBC2         1.5470    -0.8360     1.9780 hc         1 LYP       0.055200
     20 HGC1         2.0070     2.1440     1.5900 hc         1 LYP       0.002200
     21 HGC2         0.4950     1.3970     2.1240 hc         1 LYP       0.002200
     22 HDC1         1.6520     0.4720     4.1040 hc         1 LYP       0.032200
     23 HDC2         3.1640     1.2190     3.5690 hc         1 LYP       0.032200
     24 HEC1         2.1120     3.4520     3.7150 h1         1 LYP       0.005700
     25 HEC2         0.6000     2.7050     4.2500 h1         1 LYP       0.005700
     26 HMC1         0.6590     1.1840     5.8750 h1         1 LYP       0.006700
     27 HMC2         2.1960     0.7850     6.6550 h1         1 LYP       0.006700
     28 HMC3         1.1390     2.0160     7.3600 h1         1 LYP       0.006700
     29 HCD1         2.4220     4.6960     5.5920 h1         1 LYP       0.007200
     30 HCD2         0.9580     4.1390     6.4140 h1         1 LYP       0.007200
     31 HCA1         1.5300     5.5610     8.3750 hc         1 LYP       0.001033
     32 HCA2         3.0900     5.3720     9.1880 hc         1 LYP       0.001033
     33 HCA3         3.0130     6.1080     7.5810 hc         1 LYP       0.001033
     34 HCC1         3.8020     3.7770     7.4260 hc         1 LYP       0.022700
     35 HCC2         2.3380     3.2200     8.2490 hc         1 LYP       0.022700
     36 HN3         -0.3340    -0.6580     0.6760 hn         1 LYP       0.210467
@<TRIPOS>BOND
     1     1     2 1   
     2     1    15 1   
     3     1    16 1   
     4     1    36 1   
     5     2     3 1   
     6     2     9 1   
     7     2    17 1   
     8     3     4 1   
     9     3    18 1   
    10     3    19 1   
    11     4     5 1   
    12     4    20 1   
    13     4    21 1   
    14     5     6 1   
    15     5    22 1   
    16     5    23 1   
    17     6     7 1   
    18     6    24 1   
    19     6    25 1   
    20     7     8 1   
    21     7    13 1   
    22     8    26 1   
    23     8    27 1   
    24     8    28 1   
    25     9    10 1   
    26     9    14 1   
    27    11    12 1   
    28    11    31 1   
    29    11    32 1   
    30    11    33 1   
    31    12    13 1   
    32    12    34 1   
    33    12    35 1   
    34    13    29 1   
    35    13    30 1   
@<TRIPOS>SUBSTRUCTURE
     1 LYP         1 TEMP              0 ****  ****    0 ROOT
