@<TRIPOS>MOLECULE
LYT
   17    16     1     0     0
SMALL
bcc


@<TRIPOS>ATOM
      1 C1           0.0000     0.0000     0.0000 c3         1 LYT      -0.054200
      2 N            1.4680     0.0000     0.0000 nz         1 LYT       0.087400
      3 C2          -0.5100     0.0000     1.4410 c3         1 LYT      -0.038400
      4 C3          -2.0390     0.0010     1.4420 c3         1 LYT      -0.015400
      5 C4          -2.5510    -0.0000     2.8830 c3         1 LYT       0.010900
      6 H11         -0.3610    -0.8840    -0.5110 hx         1 LYT       0.085700
      7 H12         -0.3610     0.8840    -0.5110 hx         1 LYT       0.085700
      8 HN1          1.8020     0.8170     0.4720 hn         1 LYT       0.223133
      9 HN2          1.8020    -0.8170     0.4720 hn         1 LYT       0.223133
     10 H21         -0.1500    -0.8850     1.9520 hc         1 LYT       0.034700
     11 H22         -0.1490     0.8840     1.9520 hc         1 LYT       0.034700
     12 H31         -2.4010    -0.8830     0.9300 hc         1 LYT       0.025700
     13 H32         -2.4000     0.8860     0.9310 hc         1 LYT       0.025700
     14 H41         -2.1910    -0.8860     3.3930 hc         1 LYT       0.016033
     15 H42         -3.6340     0.0010     2.8810 hc         1 LYT       0.016033
     16 H43         -2.1900     0.8830     3.3950 hc         1 LYT       0.016033
     17 HN3          1.8020    -0.0200    -0.9430 hn         1 LYT       0.223133
@<TRIPOS>BOND
     1     1     2 1   
     2     1     3 1   
     3     1     6 1   
     4     1     7 1   
     5     2     8 1   
     6     2     9 1   
     7     2    17 1   
     8     3     4 1   
     9     3    10 1   
    10     3    11 1   
    11     4     5 1   
    12     4    12 1   
    13     4    13 1   
    14     5    14 1   
    15     5    15 1   
    16     5    16 1   
@<TRIPOS>SUBSTRUCTURE
     1 LYT         1 TEMP              0 ****  ****    0 ROOT
