@<TRIPOS>MOLECULE
LYW
   22    21     1     0     0
SMALL
bcc


@<TRIPOS>ATOM
      1 C1           1.4680     0.0000     0.0000 c3         1 LYW      -0.216500
      2 N            0.0000     0.0000     0.0000 nz         1 LYW       0.079400
      3 C            1.9700     0.0000     1.4210 c          1 LYW       0.665900
      4 O            1.1860    -0.0010     2.3390 o          1 LYW      -0.514100
      5 C2           1.9790     1.2500    -0.7200 c3         1 LYW      -0.028400
      6 C3           1.5730     1.1900    -2.1940 c3         1 LYW      -0.040400
      7 C4           2.0840     2.4390    -2.9160 c3         1 LYW      -0.019400
      8 C5           1.6780     2.3780    -4.3890 c3         1 LYW       0.008900
      9 H1           1.8300    -0.8840    -0.5110 hx         1 LYW       0.110700
     10 HN1         -0.3340    -0.3080    -0.8920 hn         1 LYW       0.232467
     11 HN2         -0.3340    -0.6180     0.7130 hn         1 LYW       0.232467
     12 H            3.0350    -0.0320     1.6190 h4         1 LYW       0.030200
     13 H21          1.5470     2.1320    -0.2620 hc         1 LYW       0.056200
     14 H22          3.0580     1.2950    -0.6440 hc         1 LYW       0.056200
     15 H31          2.0040     0.3070    -2.6520 hc         1 LYW       0.013700
     16 H32          0.4930     1.1450    -2.2700 hc         1 LYW       0.013700
     17 H41          1.6530     3.3220    -2.4590 hc         1 LYW       0.025200
     18 H42          3.1640     2.4840    -2.8400 hc         1 LYW       0.025200
     19 H51          0.5980     2.3430    -4.4650 hc         1 LYW       0.012367
     20 H52          2.0480     3.2580    -4.9020 hc         1 LYW       0.012367
     21 H53          2.1010     1.4910    -4.8440 hc         1 LYW       0.012367
     22 HN3         -0.3340     0.9300     0.1610 hn         1 LYW       0.232467
@<TRIPOS>BOND
     1     1     2 1   
     2     1     3 1   
     3     1     5 1   
     4     1     9 1   
     5     2    10 1   
     6     2    11 1   
     7     2    22 1   
     8     3     4 2   
     9     3    12 1   
    10     5     6 1   
    11     5    13 1   
    12     5    14 1   
    13     6     7 1   
    14     6    15 1   
    15     6    16 1   
    16     7     8 1   
    17     7    17 1   
    18     7    18 1   
    19     8    19 1   
    20     8    20 1   
    21     8    21 1   
@<TRIPOS>SUBSTRUCTURE
     1 LYW         1 TEMP              0 ****  ****    0 ROOT
