@<TRIPOS>MOLECULE
LZ0
   37    35     1     0     0
SMALL
bcc


@<TRIPOS>ATOM
      1 C1          0.4850    0.0240    1.4830 c2        1 LZ0     -0.065000
      2 C2          1.2050    0.2670    0.3650 c2        1 LZ0     -0.078000
      3 C3          2.5850   -0.2310    0.0880 c3        1 LZ0      0.001000
      4 C4          0.7860   -2.0760    4.4520 c1        1 LZ0      0.053000
      5 C5          0.0770   -1.4640    3.2770 c3        1 LZ0     -0.090000
      6 C6         -0.6330   -2.5340    2.4730 c3        1 LZ0     -0.219000
      7 O1         -1.8960    1.8740    0.3040 oh        1 LZ0     -0.169000
      8 O2          0.6000    1.0440   -0.6080 oh        1 LZ0     -0.295000
      9 O3          2.8900   -0.1340   -1.2900 oh        1 LZ0     -0.327000
     10 O4          2.0440   -1.8990    4.6510 oh        1 LZ0     -0.147000
     11 O5          1.0480   -0.7660    2.4670 os        1 LZ0     -0.268000
     12 O1'         0.7060    3.0890   -2.4900 oh        1 LZ0     -0.271000
     13 C5'        -0.8220    4.4450   -1.3190 c2        1 LZ0     -0.236000
     14 N1'        -1.6180    2.5910   -2.7270 na        1 LZ0     -0.167000
     15 C1'        -2.5920    1.8390   -2.0080 c2        1 LZ0     -0.198000
     16 C3'        -2.7790    1.5900   -0.5910 c1        1 LZ0      0.117000
     17 C2'        -3.4010    1.3070   -3.0360 c2        1 LZ0     -0.104000
     18 N3'        -2.8690    1.7530   -4.2610 n2        1 LZ0     -0.103000
     19 N2'        -1.8560    2.4920   -4.0540 n2        1 LZ0      0.027000
     20 H1         -1.0390    2.2540    0.0030 ho        1 LZ0      0.203000
     21 H2         -0.5280    0.4160    1.6570 h4        1 LZ0      0.164000
     22 H3          3.3490    0.4210    0.5940 h1        1 LZ0      0.108000
     23 HA          1.3070    1.4430   -1.1460 ho        1 LZ0      0.248000
     24 H4          2.6930   -1.2860    0.4570 h1        1 LZ0      0.108000
     25 HB          2.3070   -0.7460   -1.7570 ho        1 LZ0      0.208000
     26 H5         -0.6690   -0.7210    3.6830 h1        1 LZ0      0.126000
     27 HC          2.5340   -1.3550    3.9970 ho        1 LZ0      0.190000
     28 H6C1        0.0980   -3.2760    2.0750 hc        1 LZ0      0.094667
     29 H6C2       -1.1690   -2.0640    1.6110 hc        1 LZ0      0.094667
     30 H6C3       -1.3700   -3.0630    3.1240 hc        1 LZ0      0.094667
     31 H3'1       -1.9410   -0.7990   -0.4300 ha        1 LZ0      0.002000
     32 H3'2       -1.3130   -0.5510   -0.3670 ha        1 LZ0      0.002000
     33 H4'1        0.7830    2.9810   -3.4520 ho        1 LZ0      0.246000
     34 H4'2        0.0200    5.0380   -0.9380 ha        1 LZ0      0.152500
     35 H2'        -4.2800    0.6660   -2.9700 h4        1 LZ0      0.209000
     36 H1A        -1.8230    4.7130   -0.9630 ha        1 LZ0      0.152500
     37 C4'        -0.5980    3.4240   -2.1670 c2        1 LZ0      0.136000
@<TRIPOS>BOND
     1    1    2 1   
     2    1   11 1   
     3    1   21 1   
     4    2    3 1   
     5    2    8 1   
     6    3    9 1   
     7    3   22 1   
     8    3   24 1   
     9    4    5 1   
    10    4   10 1   
    11    5    6 1   
    12    5   11 1   
    13    5   26 1   
    14    6   28 1   
    15    6   29 1   
    16    6   30 1   
    17    7   16 1   
    18    7   20 1   
    19    8   23 1   
    20    9   25 1   
    21   10   27 1   
    22   12   33 1   
    23   12   37 1   
    24   13   34 1   
    25   13   36 1   
    26   13   37 1   
    27   14   15 1   
    28   14   19 1   
    29   14   37 1   
    30   15   16 1   
    31   15   17 1   
    32   17   18 1   
    33   17   35 1   
    34   18   19 1   
    35   31   32 1   
@<TRIPOS>SUBSTRUCTURE
     1 LZ0         1 TEMP              0 ****  ****    0 ROOT
