@<TRIPOS>MOLECULE
molecule
   37    38     1     0     0
SMALL
bcc


@<TRIPOS>ATOM
      1 C1           0.0000     0.0000     0.0000 c3         1 LZ0       0.313900
      2 C2           1.5490     0.0000     0.0000 c3         1 LZ0       0.131100
      3 C3           2.1480     0.0000     1.4090 c3         1 LZ0       0.120100
      4 C4           1.4630    -1.0640     2.2650 c3         1 LZ0       0.106100
      5 C5          -0.0720    -0.9010     2.2220 c3         1 LZ0       0.140100
      6 C6          -0.7830    -1.9610     3.0480 c3         1 LZ0      -0.084100
      7 O1          -0.4750     1.3090     0.3620 os         1 LZ0      -0.400600
      8 O2           2.0840     1.1200    -0.7180 oh         1 LZ0      -0.603800
      9 O3           3.5490    -0.3050     1.2990 oh         1 LZ0      -0.599800
     10 O4           1.8290    -2.3670     1.7870 oh         1 LZ0      -0.583800
     11 O5          -0.5400    -0.9870     0.8800 os         1 LZ0      -0.407600
     12 O1'         -2.0370     4.5090    -1.1800 o          1 LZ0      -0.508100
     13 C5'         -1.3930     4.4610    -2.2270 c          1 LZ0       0.549900
     14 N1'         -1.7080     2.1030    -2.4680 na         1 LZ0       0.135400
     15 C1'         -2.1650     1.4030    -1.4350 cc         1 LZ0      -0.210900
     16 C3'         -1.8040     1.3910     0.0330 c3         1 LZ0       0.188700
     17 C2'         -3.1440     0.5140    -1.9040 cd         1 LZ0       0.254200
     18 N3'         -3.2740     0.6970    -3.2590 nd         1 LZ0      -0.336000
     19 N2'         -2.3800     1.7280    -3.6510 nc         1 LZ0      -0.260800
     20 H1          -0.3380    -0.2230    -1.0050 h2         1 LZ0       0.090700
     21 H2           1.8770    -0.9050    -0.4970 h1         1 LZ0       0.075700
     22 H3           2.0140     0.9750     1.8620 h1         1 LZ0       0.061700
     23 HA           2.7160     0.8160    -1.3490 ho         1 LZ0       0.412000
     24 H4           1.7970    -0.9550     3.2900 h1         1 LZ0       0.039700
     25 HB           4.0490     0.3370     1.7760 ho         1 LZ0       0.405000
     26 H5          -0.3250     0.0770     2.6130 h1         1 LZ0       0.048700
     27 HC           2.3960    -2.7850     2.4140 ho         1 LZ0       0.405000
     28 H6C1        -0.7490    -2.9100     2.5260 hc         1 LZ0       0.050033
     29 H6C2        -0.2920    -2.0600     4.0090 hc         1 LZ0       0.050033
     30 H6C3        -1.8160    -1.6690     3.1990 hc         1 LZ0       0.050033
     31 H3'1        -2.3090     0.5490     0.4900 h1         1 LZ0       0.073200
     32 H3'2        -2.1980     2.2970     0.4770 h1         1 LZ0       0.073200
     33 H4'1         0.1060     2.9780    -1.8900 h1         1 LZ0       0.103200
     34 H4'2        -0.3390     3.2000    -3.5920 h1         1 LZ0       0.103200
     35 H2'         -3.6980    -0.1970    -1.3020 h4         1 LZ0       0.055100
     36 H1A         -1.0960     5.3780    -2.7230 h4         1 LZ0       0.023200
     37 C4'         -0.7120     3.1600    -2.5760 c3         1 LZ0      -0.061700
@<TRIPOS>BOND
     1     1     2 1
     2     1     7 1
     3     1    11 1
     4     2     3 1
     5     2     8 1
     6     3     4 1
     7     3     9 1
     8     4     5 1
     9     4    10 1
    10     5     6 1
    11     5    11 1
    12     7    16 1
    13    12    13 2
    14    13    37 1
    15    37    14 1
    16    14    15 1
    17    14    19 1
    18    15    16 1
    19    15    17 2
    20    17    18 1
    21    18    19 2
    22     1    20 1
    23     2    21 1
    24     3    22 1
    25     8    23 1
    26     4    24 1
    27     9    25 1
    28     5    26 1
    29    10    27 1
    30     6    28 1
    31     6    29 1
    32     6    30 1
    33    16    31 1
    34    16    32 1
    35    37    33 1
    36    37    34 1
    37    17    35 1
    38    13    36 1
@<TRIPOS>SUBSTRUCTURE
     1 LZ0         1 TEMP              0 ****  ****    0 ROOT
