@<TRIPOS>MOLECULE
LZ1
   15    16     1     0     0
SMALL
bcc


@<TRIPOS>ATOM
      1 C1         -0.0200   -0.0050    0.0180 ca        1 LZ1     -0.054200
      2 C2          1.4260   -0.0030    0.0320 ca        1 LZ1     -0.213900
      3 C3          2.1080    0.0020    1.2460 ca        1 LZ1     -0.062000
      4 C4          1.3660    0.0140    2.4190 ca        1 LZ1     -0.161000
      5 C5         -0.0420    0.0140    2.3980 ca        1 LZ1     -0.098000
      6 C6         -0.7570    0.0020    1.2100 ca        1 LZ1     -0.141000
      7 N          -0.3950   -0.0670   -1.3370 na        1 LZ1     -0.022100
      8 C9          1.7880   -0.0170   -1.3810 cc        1 LZ1      0.347800
      9 N2          0.6780   -0.0220   -2.1420 nd        1 LZ1     -0.512100
     10 H6         -1.8550   -0.0040    1.2020 ha        1 LZ1      0.139000
     11 H          -1.2910    0.1530   -1.7010 hn        1 LZ1      0.317700
     12 H3          3.2070   -0.0040    1.2690 ha        1 LZ1      0.138000
     13 H9          2.7920   -0.0250   -1.8050 h4        1 LZ1      0.054800
     14 H4          1.8820    0.0220    3.3900 ha        1 LZ1      0.134000
     15 H5         -0.5870    0.0240    3.3540 ha        1 LZ1      0.133000
@<TRIPOS>BOND
     1    1    2 ar  
     2    1    6 ar  
     3    1    7 1   
     4    2    3 ar  
     5    2    8 1   
     6    3    4 ar  
     7    3   12 1   
     8    4    5 ar  
     9    4   14 1   
    10    5    6 ar  
    11    5   15 1   
    12    6   10 1   
    13    7    9 1   
    14    7   11 1   
    15    8    9 2   
    16    8   13 1   
@<TRIPOS>SUBSTRUCTURE
     1 LZ1         1 TEMP              0 ****  ****    0 ROOT
