@<TRIPOS>MOLECULE
molecule
   15    16     1     0     0
SMALL
bcc


@<TRIPOS>ATOM
      1 C1           0.0000     0.0000     0.0000 ca         1 LZ1      -0.038200
      2 C2           1.4020     0.0000     0.0000 ca         1 LZ1      -0.229900
      3 C3           2.0640     0.0000     1.2260 ca         1 LZ1      -0.058000
      4 C4           1.3520     0.0100     2.4120 ca         1 LZ1      -0.165000
      5 C5          -0.0300     0.0170     2.3980 ca         1 LZ1      -0.087000
      6 C6          -0.7080     0.0160     1.1950 ca         1 LZ1      -0.155000
      7 N           -0.3820     0.0020    -1.3170 na         1 LZ1      -0.030100
      8 C9           1.7820    -0.0100    -1.3650 cc         1 LZ1       0.354800
      9 N2           0.6950     0.0010    -2.1470 nd         1 LZ1      -0.497100
     10 H6          -1.7910     0.0220     1.1830 ha         1 LZ1       0.129000
     11 H           -1.3330     0.0090    -1.6280 hn         1 LZ1       0.325700
     12 H3           3.1470    -0.0060     1.2500 ha         1 LZ1       0.131000
     13 H9           2.8040    -0.0130    -1.7230 h4         1 LZ1       0.052800
     14 H4           1.8810     0.0110     3.3570 ha         1 LZ1       0.133000
     15 H5          -0.5820     0.0250     3.3300 ha         1 LZ1       0.134000
@<TRIPOS>BOND
     1     1     2 ar
     2     1     6 ar
     3     1     7 1
     4     2     3 ar
     5     2     8 1
     6     3     4 ar
     7     4     5 ar
     8     5     6 ar
     9     7     9 1
    10     8     9 2
    11     6    10 1
    12     7    11 1
    13     3    12 1
    14     8    13 1
    15     4    14 1
    16     5    15 1
@<TRIPOS>SUBSTRUCTURE
     1 LZ1         1 TEMP              0 ****  ****    0 ROOT
