@<TRIPOS>MOLECULE
molecule
   25    26     1     0     0
SMALL
bcc


@<TRIPOS>ATOM
      1 N1           0.0000     0.0000     0.0000 nz         1 LZ2      -0.822500
      2 S2           1.6040     0.0000     0.0000 sy         1 LZ2       1.195200
      3 O3           2.0360     0.0000     1.3730 o          1 LZ2      -0.515800
      4 O4           2.0360    -1.0560    -0.8720 o          1 LZ2      -0.515800
      5 C5           2.1490     1.5220    -0.7090 ca         1 LZ2      -0.357500
      6 C6           2.9950     2.3240     0.0480 ca         1 LZ2       0.051000
      7 C7           3.4340     3.5300    -0.4470 ca         1 LZ2      -0.175000
      8 C8           3.0410     3.9530    -1.7050 ca         1 LZ2       0.035000
      9 C9           2.1920     3.1710    -2.4970 ca         1 LZ2      -0.094000
     10 C10          1.7720     3.5840    -3.7760 ca         1 LZ2       0.201100
     11 O11          2.2080     4.7770    -4.2490 oh         1 LZ2      -0.496100
     12 C12          0.9320     2.7830    -4.5330 ca         1 LZ2      -0.208000
     13 C13          0.4870     1.5750    -4.0320 ca         1 LZ2      -0.005000
     14 C14          0.8760     1.1550    -2.7740 ca         1 LZ2      -0.248000
     15 C15          1.7320     1.9330    -1.9840 ca         1 LZ2       0.076000
     16 H1N1        -0.3340    -0.5590    -0.7600 hn         1 LZ2       0.500467
     17 H1N2        -0.3340     0.9380    -0.1040 hn         1 LZ2       0.500467
     18 H6           3.3070     1.9990     1.0330 ha         1 LZ2       0.171000
     19 H7           4.0930     4.1500     0.1490 ha         1 LZ2       0.171000
     20 H8           3.3940     4.9050    -2.0820 ha         1 LZ2       0.174000
     21 H11          2.5690     4.6610    -5.1120 ho         1 LZ2       0.451000
     22 H12          0.6230     3.1060    -5.5200 ha         1 LZ2       0.166000
     23 H13         -0.1690     0.9530    -4.6290 ha         1 LZ2       0.156000
     24 H14          0.5190     0.2050    -2.3960 ha         1 LZ2       0.087000
     25 H131        -0.3340    -0.3340     0.8830 hn         1 LZ2       0.500467
@<TRIPOS>BOND
     1     1     2 1
     2     2     3 2
     3     2     4 2
     4     2     5 1
     5     5     6 ar
     6     5    15 ar
     7     6     7 ar
     8     7     8 ar
     9     8     9 ar
    10     9    10 ar
    11     9    15 ar
    12    10    11 1
    13    10    12 ar
    14    12    13 ar
    15    13    14 ar
    16    14    15 ar
    17     1    16 1
    18     1    17 1
    19     6    18 1
    20     7    19 1
    21     8    20 1
    22    11    21 1
    23    12    22 1
    24    13    23 1
    25    14    24 1
    26    25     1 1
@<TRIPOS>SUBSTRUCTURE
     1 LZ2         1 TEMP              0 ****  ****    0 ROOT
