@<TRIPOS>MOLECULE
LZ3
   35    37     1     0     0
SMALL
bcc


@<TRIPOS>ATOM
      1 N1           0.0000     0.0000     0.0000 ns         1 LZ3      -0.019100
      2 C2           1.3290     0.0000     0.0000 c          1 LZ3       0.533800
      3 C3           1.9680     0.0000     1.3170 cc         1 LZ3       0.278900
      4 C4           4.4370     0.5820     0.9150 ca         1 LZ3      -0.029000
      5 C5           5.6410     0.7870     1.5670 ca         1 LZ3      -0.112000
      6 C6           5.7050     0.7120     2.9490 ca         1 LZ3      -0.050000
      7 C7           4.5670     0.4380     3.6830 ca         1 LZ3      -0.099000
      8 C9           3.2930     0.2700     1.6450 ca         1 LZ3      -0.170900
      9 O11          1.9970     0.0550    -1.0440 o          1 LZ3      -0.635100
     10 N12          1.2340    -0.2040     2.4190 nd         1 LZ3      -0.662100
     11 N17          2.0910    -0.0790     3.4610 na         1 LZ3       0.531900
     12 C20         -0.2850     1.4150    -1.9410 ca         1 LZ3      -0.129000
     13 C21         -1.0080     1.7970    -3.0470 ca         1 LZ3       0.035000
     14 C22         -2.1830     1.1370    -3.3650 ca         1 LZ3      -0.241500
     15 C23         -2.6380     0.1000    -2.5690 ca         1 LZ3       0.035000
     16 C24         -1.9120    -0.2770    -1.4530 ca         1 LZ3      -0.129000
     17 S27         -3.1210     1.6600    -4.7550 sy         1 LZ3       0.904200
     18 O28         -3.5940     2.9700    -4.4530 o          1 LZ3      -0.493800
     19 O29         -4.0850     0.6250    -5.0450 o          1 LZ3      -0.493800
     20 N30         -2.1420     1.7730    -6.0240 nz         1 LZ3      -0.138500
     21 C8          -0.7420     0.3800    -1.1260 ca         1 LZ3       0.028600
     22 C16          3.3580     0.2160     3.0380 ca         1 LZ3      -0.230200
     23 H1          -0.4850    -0.2810     0.8290 hn         1 LZ3       0.209500
     24 H4           4.3900     0.6410    -0.1650 ha         1 LZ3       0.123000
     25 H5           6.5360     1.0020     0.9950 ha         1 LZ3       0.114000
     26 H6           6.6490     0.8730     3.4560 ha         1 LZ3       0.113000
     27 H7           4.6210     0.3800     4.7640 ha         1 LZ3       0.111000
     28 H17          1.8270    -0.1800     4.4210 hn         1 LZ3       0.146700
     29 H20          0.6340     1.9310    -1.6930 ha         1 LZ3       0.142500
     30 H21         -0.6530     2.6040    -3.6760 ha         1 LZ3       0.111500
     31 H23         -3.5560    -0.4160    -2.8200 ha         1 LZ3       0.111500
     32 H24         -2.2670    -1.0890    -0.8280 ha         1 LZ3       0.142500
     33 H301        -1.6480     0.9110    -6.1430 hn         1 LZ3       0.319467
     34 H302        -2.6820     1.9640    -6.8450 hn         1 LZ3       0.319467
     35 H303        -1.4870     2.5150    -5.8750 hn         1 LZ3       0.319467
@<TRIPOS>BOND
     1     1     2 1   
     2     1    21 1   
     3     1    23 1   
     4     2     3 1   
     5     2     9 2   
     6     3     8 1   
     7     3    10 2   
     8     4     5 ar  
     9     4     8 ar  
    10     4    24 1   
    11     5     6 ar  
    12     5    25 1   
    13     6     7 ar  
    14     6    26 1   
    15     7    22 ar  
    16     7    27 1   
    17     8    22 ar  
    18    10    11 1   
    19    11    22 1   
    20    11    28 1   
    21    12    13 ar  
    22    12    21 ar  
    23    12    29 1   
    24    13    14 ar  
    25    13    30 1   
    26    14    15 ar  
    27    14    17 1   
    28    15    16 ar  
    29    15    31 1   
    30    16    21 ar  
    31    16    32 1   
    32    17    18 2   
    33    17    19 2   
    34    17    20 1   
    35    20    33 1   
    36    20    34 1   
    37    20    35 1   
@<TRIPOS>SUBSTRUCTURE
     1 LZ3         1 TEMP              0 ****  ****    0 ROOT
