@<TRIPOS>MOLECULE
molecule
   28    29     1     0     0
SMALL
bcc


@<TRIPOS>ATOM
      1 N1           0.0000     0.0000     0.0000 nz         1 LZ4      -0.814500
      2 S2           1.6020     0.0000     0.0000 sy         1 LZ4       1.165200
      3 O3           2.0420     0.0000     1.3710 o          1 LZ4      -0.509800
      4 O4           2.0340    -1.0640    -0.8740 o          1 LZ4      -0.509800
      5 C5           2.1390     1.5160    -0.7290 ca         1 LZ4      -0.379500
      6 C6           2.4140     2.6100     0.0790 ca         1 LZ4       0.014500
      7 C7           2.8430     3.7880    -0.4930 ca         1 LZ4      -0.202000
      8 C8           2.9910     3.8890    -1.8770 ca         1 LZ4       0.293600
      9 N9           3.4180     5.0940    -2.4580 nu         1 LZ4      -0.745300
     10 C10          3.6100     5.4540    -3.7960 ca         1 LZ4       0.533900
     11 C11          2.8180     4.9810    -4.8340 ca         1 LZ4       0.258900
     12 N12          3.0190     5.3430    -6.1030 nb         1 LZ4      -0.578000
     13 C13          4.0230     6.1940    -6.3300 ca         1 LZ4       0.300900
     14 C14          4.7940     6.6610    -5.2870 ca         1 LZ4       0.412000
     15 Cl1          6.0950     7.7620    -5.6080 cl         1 LZ4      -0.109000
     16 N16          4.6210     6.3100    -4.0120 nb         1 LZ4      -0.646000
     17 C17          2.7000     2.7870    -2.6770 ca         1 LZ4      -0.202000
     18 C18          2.2750     1.6080    -2.1040 ca         1 LZ4       0.014500
     19 H1N1        -0.3340     0.8000     0.5010 hn         1 LZ4       0.496800
     20 H1N2        -0.3340     0.0340    -0.9430 hn         1 LZ4       0.496800
     21 H6           2.3000     2.5350     1.1530 ha         1 LZ4       0.157500
     22 H18          2.0490     0.7530    -2.7290 ha         1 LZ4       0.157500
     23 H7           3.0580     4.6440     0.1350 ha         1 LZ4       0.168000
     24 H9           3.6200     5.8210    -1.8010 hn         1 LZ4       0.462800
     25 H17          2.8090     2.8570    -3.7520 ha         1 LZ4       0.168000
     26 H11          2.0140     4.2920    -4.6070 h4         1 LZ4       0.033100
     27 H13          4.2320     6.5210    -7.3410 h4         1 LZ4       0.064100
     28 H131        -0.3340    -0.8310     0.4470 hn         1 LZ4       0.496800
@<TRIPOS>BOND
     1     1     2 1
     2     2     3 2
     3     2     4 2
     4     2     5 1
     5     5     6 ar
     6     5    18 ar
     7     6     7 ar
     8     7     8 ar
     9     8     9 1
    10     8    17 ar
    11     9    10 1
    12    10    11 ar
    13    10    16 ar
    14    11    12 ar
    15    12    13 ar
    16    13    14 ar
    17    14    15 1
    18    14    16 ar
    19    17    18 ar
    20     1    19 1
    21     1    20 1
    22     6    21 1
    23    18    22 1
    24     7    23 1
    25     9    24 1
    26    17    25 1
    27    11    26 1
    28    13    27 1
    29    28     1 1
@<TRIPOS>SUBSTRUCTURE
     1 LZ4         1 TEMP              0 ****  ****    0 ROOT
