@<TRIPOS>MOLECULE
molecule
   23    24     1     0     0
SMALL
bcc


@<TRIPOS>ATOM
      1 O1           0.0000     0.0000     0.0000 o          1 LZ5      -0.568100
      2 C2           1.1970     0.0000     0.0000 c          1 LZ5       0.609600
      3 N3           1.9260     0.0000     1.1320 ns         1 LZ5      -0.479100
      4 C4           1.4450     0.1840     2.4330 ca         1 LZ5       0.067600
      5 C5           0.4200     1.0960     2.6870 ca         1 LZ5      -0.148000
      6 C6          -0.0540     1.2710     3.9730 ca         1 LZ5      -0.109500
      7 C7           0.4940     0.5470     5.0140 ca         1 LZ5      -0.147000
      8 C8           1.5100    -0.3570     4.7720 ca         1 LZ5      -0.109500
      9 C9           1.9900    -0.5350     3.4930 ca         1 LZ5      -0.148000
     10 C10          1.9500     0.0520    -1.2590 cc         1 LZ5       0.267800
     11 C11          1.4320     0.1550    -2.5440 cc         1 LZ5      -0.269300
     12 C12          2.5100     0.1860    -3.3550 cd         1 LZ5      -0.137300
     13 N13          3.5960     0.1170    -2.5660 na         1 LZ5      -0.008600
     14 N15          3.2570     0.0440    -1.2560 nd         1 LZ5      -0.505800
     15 H3           2.9110    -0.1460     1.0320 hn         1 LZ5       0.331500
     16 H5          -0.0110     1.6650     1.8710 ha         1 LZ5       0.139000
     17 H9           2.7870    -1.2450     3.3100 ha         1 LZ5       0.139000
     18 H6          -0.8500     1.9790     4.1650 ha         1 LZ5       0.131500
     19 H7           0.1220     0.6830     6.0220 ha         1 LZ5       0.129000
     20 H8           1.9380    -0.9210     5.5930 ha         1 LZ5       0.131500
     21 H11          0.3890     0.1920    -2.8320 ha         1 LZ5       0.180000
     22 H13          4.5380     0.1250    -2.9040 hn         1 LZ5       0.323700
     23 H12          2.5010     0.2570    -4.4360 h4         1 LZ5       0.180000
@<TRIPOS>BOND
     1     1     2 2
     2     2     3 1
     3     2    10 1
     4     3     4 1
     5     4     5 ar
     6     4     9 ar
     7     5     6 ar
     8     6     7 ar
     9     7     8 ar
    10     8     9 ar
    11    10    11 1
    12    10    14 2
    13    11    12 2
    14    12    13 1
    15    13    14 1
    16     3    15 1
    17     5    16 1
    18     9    17 1
    19     6    18 1
    20     7    19 1
    21     8    20 1
    22    11    21 1
    23    13    22 1
    24    12    23 1
@<TRIPOS>SUBSTRUCTURE
     1 LZ5         1 TEMP              0 ****  ****    0 ROOT
