@<TRIPOS>MOLECULE
LZ5
   23    24     1     0     0
SMALL
bcc


@<TRIPOS>ATOM
      1 O1           0.0000     0.0000     0.0000 o          1 LZ5      -0.621100
      2 C2           1.1970     0.0000     0.0000 c          1 LZ5       0.513600
      3 N3           1.9260     0.0000     1.1320 ns         1 LZ5      -0.041100
      4 C4           1.4450     0.1840     2.4330 ca         1 LZ5      -0.076400
      5 C5           0.4200     1.0960     2.6870 ca         1 LZ5      -0.119500
      6 C6          -0.0540     1.2710     3.9730 ca         1 LZ5      -0.081000
      7 C7           0.4940     0.5470     5.0140 ca         1 LZ5      -0.118000
      8 C8           1.5100    -0.3570     4.7720 ca         1 LZ5      -0.081000
      9 C9           1.9900    -0.5350     3.4930 ca         1 LZ5      -0.119500
     10 C10          1.9500     0.0520    -1.2590 cc         1 LZ5       0.270800
     11 C11          1.4320     0.1550    -2.5440 cc         1 LZ5      -0.229300
     12 C12          2.5100     0.1860    -3.3550 cd         1 LZ5      -0.303300
     13 N13          3.5960     0.1170    -2.5660 na         1 LZ5       0.512400
     14 N15          3.2570     0.0440    -1.2560 nd         1 LZ5      -0.663800
     15 H3           2.9110    -0.1460     1.0320 hn         1 LZ5       0.181500
     16 H5          -0.0110     1.6650     1.8710 ha         1 LZ5       0.114000
     17 H9           2.7870    -1.2450     3.3100 ha         1 LZ5       0.114000
     18 H6          -0.8500     1.9790     4.1650 ha         1 LZ5       0.102000
     19 H7           0.1220     0.6830     6.0220 ha         1 LZ5       0.102000
     20 H8           1.9380    -0.9210     5.5930 ha         1 LZ5       0.102000
     21 H11          0.3890     0.1920    -2.8320 ha         1 LZ5       0.154000
     22 H13          4.5380     0.1250    -2.9040 hn         1 LZ5       0.134700
     23 H12          2.5010     0.2570    -4.4360 h4         1 LZ5       0.152000
@<TRIPOS>BOND
     1     1     2 2   
     2     2     3 1   
     3     2    10 1   
     4     3     4 1   
     5     3    15 1   
     6     4     5 ar  
     7     4     9 ar  
     8     5     6 ar  
     9     5    16 1   
    10     6     7 ar  
    11     6    18 1   
    12     7     8 ar  
    13     7    19 1   
    14     8     9 ar  
    15     8    20 1   
    16     9    17 1   
    17    10    11 1   
    18    10    14 2   
    19    11    12 2   
    20    11    21 1   
    21    12    13 1   
    22    12    23 1   
    23    13    14 1   
    24    13    22 1   
@<TRIPOS>SUBSTRUCTURE
     1 LZ5         1 TEMP              0 ****  ****    0 ROOT
