@<TRIPOS>MOLECULE
molecule
   71    71     1     0     0
SMALL
bcc


@<TRIPOS>ATOM
      1 O37          0.0000     0.0000     0.0000 o          1 LZ6      -0.785800
      2 C35          1.2080     0.0000     0.0000 c          1 LZ6       0.875600
      3 O36          1.8800     0.0040    -1.1620 o          1 LZ6      -0.785800
      4 C34          1.9610     0.0000     1.3050 c3         1 LZ6      -0.021500
      5 N38          1.0780     0.4750     2.3790 nz         1 LZ6      -0.792600
      6 C33          2.4320    -1.4200     1.6230 c3         1 LZ6      -0.073400
      7 C32          3.3020    -1.4010     2.8820 c3         1 LZ6      -0.177400
      8 C30          3.7650    -2.8000     3.1950 c          1 LZ6       0.671100
      9 O31          3.4320    -3.7230     2.4810 o          1 LZ6      -0.595100
     10 N29          4.5490    -3.0260     4.2680 ns         1 LZ6      -0.551900
     11 C21          5.0000    -4.3870     4.5720 c3         1 LZ6       0.053700
     12 C22          3.9420    -5.0980     5.3750 c          1 LZ6       0.633100
     13 O28          2.9120    -4.5260     5.6650 o          1 LZ6      -0.640100
     14 N23          4.1400    -6.3710     5.7710 ns         1 LZ6      -0.541900
     15 C24          3.1110    -7.0640     6.5520 c3         1 LZ6      -0.004000
     16 C25          3.5750    -8.4630     6.8640 c          1 LZ6       0.884600
     17 O27          2.7890    -9.2880     7.5760 o          1 LZ6      -0.844300
     18 O26          4.6530    -8.8430     6.4750 o          1 LZ6      -0.844300
     19 C20          6.2980    -4.3260     5.3790 c3         1 LZ6       0.014700
     20 S13          7.5710    -3.4680     4.4110 ss         1 LZ6      -0.383200
     21 C12          9.0090    -3.4950     5.5170 c3         1 LZ6      -0.010300
     22 C11         10.1880    -2.7980     4.8350 c3         1 LZ6       0.253800
     23 N7          11.3500    -2.8210     5.7270 nh         1 LZ6      -0.740000
     24 C8          12.2960    -3.9380     5.6710 c3         1 LZ6       0.229800
     25 C9          13.4000    -3.6240     4.6600 c3         1 LZ6       0.026000
     26 Cl10        14.5630    -5.0000     4.5920 cl         1 LZ6      -0.221400
     27 C1          11.5570    -1.7760     6.6310 ca         1 LZ6       0.175600
     28 C6          10.6590    -0.7180     6.6890 ca         1 LZ6      -0.204000
     29 C5          10.8660     0.3140     7.5840 ca         1 LZ6      -0.085000
     30 C4          11.9660     0.2940     8.4210 ca         1 LZ6      -0.103300
     31 C3          12.8630    -0.7580     8.3660 ca         1 LZ6      -0.085000
     32 C2          12.6590    -1.7950     7.4770 ca         1 LZ6      -0.204000
     33 C14         12.1890     1.4220     9.3950 c3         1 LZ6      -0.044100
     34 C15         11.4960     1.0960    10.7190 c3         1 LZ6      -0.059400
     35 C16         11.7220     2.2410    11.7090 c3         1 LZ6      -0.184400
     36 C17         11.0390     1.9210    13.0140 c          1 LZ6       0.890600
     37 O18         11.1040     2.7870    14.0360 o          1 LZ6      -0.855800
     38 O19         10.4330     0.8830    13.1390 o          1 LZ6      -0.855800
     39 H34          2.8200     0.6560     1.2270 hx         1 LZ6       0.098700
     40 HN38         0.4990     1.2140     2.0330 hn         1 LZ6       0.438800
     41 HN3A         1.6320     0.8150     3.1410 hn         1 LZ6       0.438800
     42 H33          1.5710    -2.0570     1.7890 hc         1 LZ6       0.102700
     43 H33A         3.0100    -1.8040     0.7910 hc         1 LZ6       0.102700
     44 H32          2.7240    -1.0170     3.7140 hc         1 LZ6       0.045200
     45 H32A         4.1620    -0.7640     2.7160 hc         1 LZ6       0.045200
     46 HN29         4.8100    -2.2680     4.8660 hn         1 LZ6       0.318500
     47 H21          5.1740    -4.9250     3.6480 h1         1 LZ6       0.104700
     48 HN23         4.9720    -6.8560     5.5000 hn         1 LZ6       0.333500
     49 H24          2.9370    -6.5260     7.4770 h1         1 LZ6       0.048200
     50 H24A         2.1920    -7.1070     5.9810 h1         1 LZ6       0.048200
     51 H20          6.6320    -5.3320     5.6030 h1         1 LZ6       0.080700
     52 H20A         6.1240    -3.7880     6.3030 h1         1 LZ6       0.080700
     53 H12          8.7670    -2.9780     6.4380 h1         1 LZ6       0.072200
     54 H12A         9.2750    -4.5220     5.7380 h1         1 LZ6       0.072200
     55 H11          9.9220    -1.7720     4.6140 h1         1 LZ6       0.057200
     56 H11A        10.4300    -3.3150     3.9140 h1         1 LZ6       0.057200
     57 H8          11.7740    -4.8380     5.3680 h1         1 LZ6       0.064700
     58 H8A         12.7350    -4.0890     6.6500 h1         1 LZ6       0.064700
     59 H9          12.9610    -3.4740     3.6810 h1         1 LZ6       0.069700
     60 H9A         13.9220    -2.7240     4.9630 h1         1 LZ6       0.069700
     61 H6           9.7970    -0.7030     6.0340 ha         1 LZ6       0.125000
     62 H5          10.1650     1.1390     7.6290 ha         1 LZ6       0.131500
     63 H3          13.7220    -0.7710     9.0240 ha         1 LZ6       0.131500
     64 H2          13.3610    -2.6190     7.4340 ha         1 LZ6       0.125000
     65 H14         13.2520     1.5470     9.5650 hc         1 LZ6       0.033700
     66 H14A        11.7790     2.3380     8.9880 hc         1 LZ6       0.033700
     67 H15         10.4330     0.9710    10.5490 hc         1 LZ6       0.051200
     68 H15A        11.9070     0.1800    11.1270 hc         1 LZ6       0.051200
     69 H16         12.7850     2.3670    11.8790 hc         1 LZ6       0.024700
     70 H16A        11.3110     3.1570    11.3020 hc         1 LZ6       0.024700
     71 H383         0.5070    -0.2810     2.7000 hn         1 LZ6       0.438800
@<TRIPOS>BOND
     1     1     2 1
     2     4     2 1
     3     2     3 1
     4     6     4 1
     5     4     5 1
     6     4    39 1
     7     5    40 1
     8     5    41 1
     9     7     6 1
    10     6    42 1
    11     6    43 1
    12     8     7 1
    13     7    44 1
    14     7    45 1
    15    10     8 1
    16     8     9 2
    17    11    10 1
    18    10    46 1
    19    12    11 1
    20    11    19 1
    21    11    47 1
    22    14    12 1
    23    13    12 2
    24    15    14 1
    25    14    48 1
    26    16    15 1
    27    15    49 1
    28    15    50 1
    29    18    16 1
    30    16    17 1
    31    20    19 1
    32    19    51 1
    33    19    52 1
    34    20    21 1
    35    22    21 1
    36    21    53 1
    37    21    54 1
    38    23    22 1
    39    22    55 1
    40    22    56 1
    41    24    23 1
    42    27    23 1
    43    25    24 1
    44    24    57 1
    45    24    58 1
    46    26    25 1
    47    25    59 1
    48    25    60 1
    49    28    27 ar
    50    27    32 ar
    51    29    28 ar
    52    28    61 1
    53    29    30 ar
    54    29    62 1
    55    33    30 1
    56    30    31 ar
    57    31    32 ar
    58    31    63 1
    59    32    64 1
    60    33    34 1
    61    33    65 1
    62    33    66 1
    63    35    34 1
    64    34    67 1
    65    34    68 1
    66    35    36 1
    67    35    69 1
    68    35    70 1
    69    37    36 1
    70    36    38 1
    71    71     5 1
@<TRIPOS>SUBSTRUCTURE
     1 LZ6         1 TEMP              0 ****  ****    0 ROOT
