@<TRIPOS>MOLECULE
LZ7
   30    31     1     0     0
SMALL
bcc


@<TRIPOS>ATOM
      1 C1           0.0000     0.0000     0.0000 c3         1 LZ7      -0.078100
      2 C2           1.4920     0.0000     0.0000 c          1 LZ7       0.563100
      3 O3           2.1380     0.0000     1.0330 o          1 LZ7      -0.650100
      4 N4           2.0770    -0.0170    -1.2140 ns         1 LZ7       0.008900
      5 C5           3.4380     0.0220    -1.4670 cc         1 LZ7      -0.215700
      6 C6           4.4790     0.0750    -0.5880 cd         1 LZ7      -0.327300
      7 N7           5.5880     0.0930    -1.3140 na         1 LZ7       0.559400
      8 N9           5.3130     0.0620    -2.6350 nd         1 LZ7      -0.677800
      9 C10          4.0110     0.0070    -2.7320 cc         1 LZ7       0.242800
     10 C11          3.3560    -0.0630    -4.0600 c          1 LZ7       0.518600
     11 O12          2.1430     0.0120    -4.1730 o          1 LZ7      -0.661100
     12 N13          4.1690    -0.2490    -5.1150 ns         1 LZ7      -0.009100
     13 C14          3.7870    -0.3890    -6.4410 ca         1 LZ7      -0.103400
     14 C15          4.5120     0.2400    -7.4500 ca         1 LZ7      -0.087500
     15 C16          4.1270     0.1100    -8.7700 ca         1 LZ7      -0.116000
     16 C17          3.0230    -0.6540    -9.0770 ca         1 LZ7       0.092900
     17 F18          2.6520    -0.7800   -10.3630 f          1 LZ7      -0.129900
     18 C19          2.2890    -1.2950    -8.0950 ca         1 LZ7      -0.116000
     19 C20          2.6710    -1.1610    -6.7740 ca         1 LZ7      -0.087500
     20 H1C1        -0.3610     0.8670    -0.5400 hc         1 LZ7       0.028033
     21 H1C2        -0.3610    -0.9010    -0.4800 hc         1 LZ7       0.028033
     22 H1C3        -0.3610     0.0350     1.0210 hc         1 LZ7       0.028033
     23 H4           1.4700    -0.0620    -2.0080 hn         1 LZ7       0.193500
     24 H6           4.4140     0.0920     0.4930 h4         1 LZ7       0.191000
     25 H7           6.5120     0.1340    -0.9310 hn         1 LZ7       0.136700
     26 H13          5.1500    -0.2910    -4.9240 hn         1 LZ7       0.183500
     27 H15          5.3790     0.8390    -7.1980 ha         1 LZ7       0.119500
     28 H20          2.1050    -1.6570    -5.9950 ha         1 LZ7       0.119500
     29 H16          4.6900     0.5980    -9.5560 ha         1 LZ7       0.122500
     30 H19          1.4240    -1.8920    -8.3580 ha         1 LZ7       0.122500
@<TRIPOS>BOND
     1     1     2 1   
     2     1    20 1   
     3     1    21 1   
     4     1    22 1   
     5     2     3 2   
     6     2     4 1   
     7     4     5 1   
     8     4    23 1   
     9     5     6 2   
    10     5     9 1   
    11     6     7 1   
    12     6    24 1   
    13     7     8 1   
    14     7    25 1   
    15     8     9 2   
    16     9    10 1   
    17    10    11 2   
    18    10    12 1   
    19    12    13 1   
    20    12    26 1   
    21    13    14 ar  
    22    13    19 ar  
    23    14    15 ar  
    24    14    27 1   
    25    15    16 ar  
    26    15    29 1   
    27    16    17 1   
    28    16    18 ar  
    29    18    19 ar  
    30    18    30 1   
    31    19    28 1   
@<TRIPOS>SUBSTRUCTURE
     1 LZ7         1 TEMP              0 ****  ****    0 ROOT
