@<TRIPOS>MOLECULE
molecule
   37    39     1     0     0
SMALL
bcc


@<TRIPOS>ATOM
      1 F1           0.0000     0.0000     0.0000 f          1 LZ8      -0.142900
      2 C2           1.3510     0.0000     0.0000 ca         1 LZ8       0.116900
      3 C3           2.0430     0.0000     1.1990 ca         1 LZ8      -0.153000
      4 C4           3.4240     0.0010     1.2020 ca         1 LZ8      -0.118500
      5 C5           4.1190     0.0010    -0.0000 ca         1 LZ8       0.038600
      6 N6           5.5190     0.0010    -0.0000 ns         1 LZ8      -0.462100
      7 C7           6.1930     0.6720     0.9550 c          1 LZ8       0.621600
      8 O8           5.5880     1.2070     1.8640 o          1 LZ8      -0.620100
      9 C9           7.6630     0.7570     0.8980 cc         1 LZ8       0.223800
     10 N10          8.4440     0.2290    -0.0250 nd         1 LZ8      -0.509800
     11 N11          9.6750     0.4940     0.2280 na         1 LZ8       0.042400
     12 C12          9.7720     1.2330     1.3630 cd         1 LZ8      -0.196300
     13 C13          8.5060     1.4280     1.8200 cc         1 LZ8      -0.066700
     14 N14          8.1170     2.1410     2.9640 ns         1 LZ8      -0.434100
     15 C15          9.0480     2.7260     3.7440 c          1 LZ8       0.678700
     16 O16         10.2250     2.6360     3.4550 o          1 LZ8      -0.619100
     17 C17          8.6370     3.4770     4.9490 ca         1 LZ8      -0.149600
     18 C18          9.6000     4.0840     5.7580 ca         1 LZ8      -0.083000
     19 C20          9.2090     4.7820     6.8820 ca         1 LZ8      -0.138500
     20 C21          7.8680     4.8820     7.2080 ca         1 LZ8      -0.102000
     21 C22          6.9100     4.2820     6.4100 ca         1 LZ8      -0.138500
     22 C23          7.2860     3.5860     5.2800 ca         1 LZ8      -0.083000
     23 C25          3.4240     0.0010    -1.2020 ca         1 LZ8      -0.118500
     24 C26          2.0420    -0.0050    -1.2000 ca         1 LZ8      -0.153000
     25 H3           1.5000    -0.0000     2.1370 ha         1 LZ8       0.147500
     26 H26          1.4990    -0.0050    -2.1380 ha         1 LZ8       0.147500
     27 H4           3.9640     0.0010     2.1400 ha         1 LZ8       0.154000
     28 H6           6.0190    -0.5130    -0.6980 hn         1 LZ8       0.341500
     29 H25          3.9640    -0.0010    -2.1400 ha         1 LZ8       0.154000
     30 H12         10.6850     1.6020     1.8160 h4         1 LZ8       0.225000
     31 H18         10.6500     4.0060     5.5040 ha         1 LZ8       0.145500
     32 H23          6.5350     3.1170     4.6570 ha         1 LZ8       0.145500
     33 H20          9.9550     5.2540     7.5110 ha         1 LZ8       0.136000
     34 H21          7.5670     5.4300     8.0930 ha         1 LZ8       0.133000
     35 H22          5.8620     4.3660     6.6690 ha         1 LZ8       0.136000
     36 H11         10.4510     0.1980    -0.3300 hn         1 LZ8       0.340700
     37 H14          7.1470     2.2200     3.1980 hn         1 LZ8       0.355500
@<TRIPOS>BOND
     1     1     2 1
     2     2     3 ar
     3     2    24 ar
     4     3     4 ar
     5     4     5 ar
     6     5     6 1
     7     5    23 ar
     8     6     7 1
     9     7     8 2
    10     7     9 1
    11     9    10 2
    12     9    13 1
    13    10    11 1
    14    11    12 1
    15    12    13 2
    16    13    14 1
    17    14    15 1
    18    15    16 2
    19    15    17 1
    20    17    18 ar
    21    17    22 ar
    22    18    19 ar
    23    19    20 ar
    24    20    21 ar
    25    21    22 ar
    26    23    24 ar
    27     3    25 1
    28    24    26 1
    29     4    27 1
    30     6    28 1
    31    23    29 1
    32    11    36 1
    33    14    37 1
    34    12    30 1
    35    18    31 1
    36    22    32 1
    37    19    33 1
    38    20    34 1
    39    21    35 1
@<TRIPOS>SUBSTRUCTURE
     1 LZ8         1 TEMP              0 ****  ****    0 ROOT
