@<TRIPOS>MOLECULE
LZ9
   37    39     1     0     0
SMALL
bcc


@<TRIPOS>ATOM
      1 F1           0.0000     0.0000     0.0000 f          1 LZ9      -0.128900
      2 C2           1.3450     0.0000     0.0000 ca         1 LZ9       0.106900
      3 C3           2.0120     0.0000     1.2120 ca         1 LZ9      -0.125500
      4 C4           3.3890     0.0110     1.2180 ca         1 LZ9      -0.063500
      5 C5           4.1020     0.0130     0.0100 ca         1 LZ9      -0.108400
      6 N6           5.5260     0.0010     0.0190 ns         1 LZ9      -0.037100
      7 C7           6.2760    -0.9940    -0.5050 c          1 LZ9       0.520600
      8 O8           5.7810    -1.9910    -1.0120 o          1 LZ9      -0.660100
      9 C9           7.7350    -0.7990    -0.5200 cc         1 LZ9       0.250800
     10 N10          8.3640     0.0370     0.2660 nd         1 LZ9      -0.667800
     11 N11          9.6720    -0.0680    -0.0790 na         1 LZ9       0.558400
     12 C12          9.8670    -0.9410    -1.0430 cd         1 LZ9      -0.309300
     13 C13          8.6430    -1.4360    -1.3710 cc         1 LZ9      -0.238700
     14 N14          8.2780    -2.3560    -2.3380 ns         1 LZ9       0.049900
     15 C15          9.1030    -2.9150    -3.2360 c          1 LZ9       0.586700
     16 O16         10.3220    -2.6780    -3.2440 o          1 LZ9      -0.643100
     17 C17          8.4690    -3.8960    -4.1920 ca         1 LZ9      -0.211600
     18 C18          8.7660    -5.2660    -4.1370 ca         1 LZ9       0.164900
     19 F19          9.6710    -5.6870    -3.2320 f          1 LZ9      -0.118400
     20 C20          8.1520    -6.1900    -4.9900 ca         1 LZ9      -0.151000
     21 C21          7.2100    -5.7520    -5.9200 ca         1 LZ9      -0.031000
     22 C22          6.8900    -4.3980    -6.0010 ca         1 LZ9      -0.151000
     23 C23          7.5050    -3.4910    -5.1390 ca         1 LZ9       0.164900
     24 F24          7.1740    -2.1930    -5.2080 f          1 LZ9      -0.118400
     25 C25          3.4020    -0.0030    -1.2060 ca         1 LZ9      -0.063500
     26 C26          2.0200    -0.0030    -1.2090 ca         1 LZ9      -0.125500
     27 H3           1.4580    -0.0020     2.1430 ha         1 LZ9       0.124000
     28 H26          1.4720    -0.0150    -2.1440 ha         1 LZ9       0.124000
     29 H4           3.9240     0.0110     2.1600 ha         1 LZ9       0.114000
     30 H6           6.0000     0.7750     0.4400 hn         1 LZ9       0.184500
     31 H25          3.9450    -0.0030    -2.1440 ha         1 LZ9       0.114000
     32 H12         10.8150    -1.2070    -1.4950 h4         1 LZ9       0.192000
     33 H20          8.4020    -7.2420    -4.9240 ha         1 LZ9       0.127000
     34 H21          6.7330    -6.4620    -6.5850 ha         1 LZ9       0.111000
     35 H22          6.1560    -4.0530    -6.7190 ha         1 LZ9       0.127000
     36 H11         10.4060     0.4550     0.3560 hn         1 LZ9       0.134700
     37 H14          7.3160    -2.6270    -2.3700 hn         1 LZ9       0.199500
@<TRIPOS>BOND
     1     1     2 1   
     2     2     3 ar  
     3     2    26 ar  
     4     3     4 ar  
     5     3    27 1   
     6     4     5 ar  
     7     4    29 1   
     8     5     6 1   
     9     5    25 ar  
    10     6     7 1   
    11     6    30 1   
    12     7     8 2   
    13     7     9 1   
    14     9    10 2   
    15     9    13 1   
    16    10    11 1   
    17    11    12 1   
    18    11    36 1   
    19    12    13 2   
    20    12    32 1   
    21    13    14 1   
    22    14    15 1   
    23    14    37 1   
    24    15    16 2   
    25    15    17 1   
    26    17    18 ar  
    27    17    23 ar  
    28    18    19 1   
    29    18    20 ar  
    30    20    21 ar  
    31    20    33 1   
    32    21    22 ar  
    33    21    34 1   
    34    22    23 ar  
    35    22    35 1   
    36    23    24 1   
    37    25    26 ar  
    38    25    31 1   
    39    26    28 1   
@<TRIPOS>SUBSTRUCTURE
     1 LZ9         1 TEMP              0 ****  ****    0 ROOT
