@<TRIPOS>MOLECULE
LZA
   42    44     1     0     0
SMALL
bcc


@<TRIPOS>ATOM
      1 C26          0.0000     0.0000     0.0000 c3         1 LZA       0.157800
      2 C25          1.5270     0.0000     0.0000 c3         1 LZA      -0.032900
      3 C5           2.0530     0.0000     1.4370 c3         1 LZA      -0.005300
      4 N6           3.5140     0.0230     1.4680 ns         1 LZA      -0.141900
      5 C7           4.1750     0.8010     2.3400 c          1 LZA       0.525600
      6 O8           3.5870     1.5340     3.1250 o          1 LZA      -0.685100
      7 C9           5.6640     0.7450     2.3220 cc         1 LZA       0.241800
      8 N10          6.3770     0.1500     1.3480 nd         1 LZA      -0.670800
      9 N11          7.6730     0.3010     1.7020 na         1 LZA       0.548400
     10 C12          7.7870     0.9820     2.8650 cd         1 LZA      -0.321300
     11 C13          6.5220     1.2780     3.2850 cc         1 LZA      -0.214700
     12 N14          6.0950     1.9380     4.4250 ns         1 LZA       0.052900
     13 C15          6.8760     2.3290     5.4440 c          1 LZA       0.581700
     14 O16          8.1240     2.1920     5.4450 o          1 LZA      -0.646100
     15 C17          6.1480     2.9270     6.6100 ca         1 LZA      -0.215600
     16 C18          5.2190     2.1760     7.3380 ca         1 LZA       0.167900
     17 F19          4.9990     0.9020     6.9630 f          1 LZA      -0.118900
     18 C20          4.5200     2.7160     8.4110 ca         1 LZA      -0.151000
     19 C21          4.7540     4.0280     8.7870 ca         1 LZA      -0.032000
     20 C22          5.6770     4.7950     8.0830 ca         1 LZA      -0.151000
     21 C23          6.3550     4.2390     6.9970 ca         1 LZA       0.167900
     22 F24          7.2580     4.9760     6.3210 f          1 LZA      -0.118900
     23 C4           1.4880    -1.2000     2.2090 c3         1 LZA      -0.032900
     24 N24         -0.5130    -1.2050     0.7160 n7         1 LZA      -0.590200
     25 C3          -0.0490    -1.2410     2.1320 c3         1 LZA       0.157800
     26 H261        -0.3580     0.8920     0.5000 h1         1 LZA       0.007200
     27 H262        -0.3570    -0.0120    -1.0230 h1         1 LZA       0.007200
     28 H251         1.8840     0.8850    -0.5120 hc         1 LZA       0.023950
     29 H252         1.8840    -0.8850    -0.5120 hc         1 LZA       0.023950
     30 H24         -1.5130    -1.2060     0.6920 hn         1 LZA       0.254800
     31 H5           1.6930     0.9010     1.9190 h1         1 LZA       0.058700
     32 H6           4.0300    -0.5500     0.8290 hn         1 LZA       0.190500
     33 H4C1         1.8880    -2.1130     1.7840 hc         1 LZA       0.023950
     34 H4C2         1.7880    -1.1250     3.2470 hc         1 LZA       0.023950
     35 H11          8.4480    -0.0420     1.1700 hn         1 LZA       0.138700
     36 H12          8.7090     1.2400     3.3700 h4         1 LZA       0.190000
     37 H14          5.1170     2.1420     4.4950 hn         1 LZA       0.203500
     38 H20          3.8050     2.1120     8.9560 ha         1 LZA       0.127000
     39 H21          4.2200     4.4560     9.6260 ha         1 LZA       0.111000
     40 H22          5.8610     5.8240     8.3690 ha         1 LZA       0.127000
     41 H3C1        -0.4030    -2.1530     2.5970 h1         1 LZA       0.007200
     42 H3C2        -0.4530    -0.3860     2.6590 h1         1 LZA       0.007200
@<TRIPOS>BOND
     1     1     2 1   
     2     1    24 1   
     3     1    26 1   
     4     1    27 1   
     5     2     3 1   
     6     2    28 1   
     7     2    29 1   
     8     3     4 1   
     9     3    23 1   
    10     3    31 1   
    11     4     5 1   
    12     4    32 1   
    13     5     6 2   
    14     5     7 1   
    15     7     8 2   
    16     7    11 1   
    17     8     9 1   
    18     9    10 1   
    19     9    35 1   
    20    10    11 2   
    21    10    36 1   
    22    11    12 1   
    23    12    13 1   
    24    12    37 1   
    25    13    14 2   
    26    13    15 1   
    27    15    16 ar  
    28    15    21 ar  
    29    16    17 1   
    30    16    18 ar  
    31    18    19 ar  
    32    18    38 1   
    33    19    20 ar  
    34    19    39 1   
    35    20    21 ar  
    36    20    40 1   
    37    21    22 1   
    38    23    25 1   
    39    23    33 1   
    40    23    34 1   
    41    24    25 1   
    42    24    30 1   
    43    25    41 1   
    44    25    42 1   
@<TRIPOS>SUBSTRUCTURE
     1 LZA         1 TEMP              0 ****  ****    0 ROOT
