@<TRIPOS>MOLECULE
molecule
   26    27     1     0     0
SMALL
bcc


@<TRIPOS>ATOM
      1 C1           0.0000     0.0000     0.0000 c3         1 LZB      -0.111100
      2 C2           1.5200     0.0000     0.0000 c3         1 LZB       0.213500
      3 C3           2.0910     0.0000     1.4160 c3         1 LZB      -0.111100
      4 N4           2.0260    -1.1540    -0.7400 nu         1 LZB      -0.709600
      5 C5           3.3570    -1.2140    -1.1880 cc         1 LZB       0.264300
      6 C6           4.2180    -0.1260    -1.0720 cd         1 LZB      -0.368300
      7 C7           5.5250    -0.2860    -1.5210 cd         1 LZB       0.573300
      8 Cl8          6.6410     1.0290    -1.4140 cl         1 LZB      -0.131000
      9 N9           6.0210    -1.4110    -2.0420 nc         1 LZB      -0.675000
     10 C10          5.1840    -2.4510    -2.1690 cc         1 LZB       0.458500
     11 C11          5.3680    -3.7180    -2.6750 cd         1 LZB      -0.200300
     12 C12          6.5890    -4.2120    -3.2100 ch         1 LZB       0.248500
     13 N13          7.5590    -4.6250    -3.6480 n1         1 LZB      -0.368800
     14 C14          4.1620    -4.3830    -2.5120 cd         1 LZB       0.444500
     15 N15          3.2250    -3.5670    -1.9360 nc         1 LZB      -0.589100
     16 N16          3.8680    -2.3750    -1.7600 na         1 LZB       0.028200
     17 H1C1        -0.3610     0.3130    -0.9720 hc         1 LZB       0.050367
     18 H1C2        -0.3610     0.6860     0.7570 hc         1 LZB       0.050367
     19 H1C3        -0.3610    -0.9980     0.2150 hc         1 LZB       0.050367
     20 H2           1.8810     0.8850    -0.5110 h1         1 LZB       0.068700
     21 H3C1         1.8100    -0.9180     1.9180 hc         1 LZB       0.050367
     22 H3C2         1.6960     0.8470     1.9640 hc         1 LZB       0.050367
     23 H3C3         3.1710     0.0710     1.3700 hc         1 LZB       0.050367
     24 H4           1.9050    -2.0760    -0.3720 hn         1 LZB       0.421800
     25 H6           3.8860     0.7770    -0.5730 ha         1 LZB       0.177000
     26 H14          3.9610    -5.4130    -2.7830 h4         1 LZB       0.063800
@<TRIPOS>BOND
     1     1     2 1
     2     2     3 1
     3     2     4 1
     4     4     5 1
     5     5     6 2
     6     5    16 1
     7     6     7 1
     8     7     8 1
     9     7     9 2
    10     9    10 1
    11    10    11 2
    12    10    16 1
    13    11    12 1
    14    11    14 1
    15    12    13 3
    16    14    15 2
    17    15    16 1
    18     1    17 1
    19     1    18 1
    20     1    19 1
    21     2    20 1
    22     3    21 1
    23     3    22 1
    24     3    23 1
    25     4    24 1
    26     6    25 1
    27    14    26 1
@<TRIPOS>SUBSTRUCTURE
     1 LZB         1 TEMP              0 ****  ****    0 ROOT
