@<TRIPOS>MOLECULE
molecule
   47    49     1     0     0
SMALL
bcc


@<TRIPOS>ATOM
      1 C1           0.0000     0.0000     0.0000 c3         1 LZC      -0.141100
      2 C2           1.5290     0.0000     0.0000 c3         1 LZC       0.270500
      3 C3           2.1060     0.0000     1.4160 c3         1 LZC      -0.141100
      4 N4           2.0310    -1.1540    -0.7280 nu         1 LZC      -0.758600
      5 C5           3.2920    -1.1790    -1.3060 cc         1 LZC       0.332300
      6 C6           4.1130    -0.0700    -1.4510 cd         1 LZC      -0.398300
      7 C7           5.3620    -0.2440    -2.0360 cd         1 LZC       0.711200
      8 N8           6.2440     0.7940    -2.2140 nu         1 LZC      -0.833900
      9 C9           7.6390     0.5980    -2.5680 c3         1 LZC       0.128500
     10 C10          8.2680     1.9440    -2.9310 c3         1 LZC      -0.102400
     11 C11          9.7480     1.8160    -3.2240 c3         1 LZC      -0.107400
     12 C12         10.4520     1.2750    -1.9990 c3         1 LZC       0.149500
     13 N13         11.9330     1.2150    -2.2480 nz         1 LZC      -0.980600
     14 C14          9.9110    -0.1070    -1.6190 c3         1 LZC      -0.107400
     15 C15          8.3950    -0.0820    -1.4100 c3         1 LZC      -0.102400
     16 N16          5.7930    -1.4390    -2.4930 nc         1 LZC      -0.805000
     17 C17          4.9980    -2.4980    -2.3400 cc         1 LZC       0.500500
     18 C18          5.1540    -3.8240    -2.6420 cd         1 LZC      -0.253300
     19 C19          6.2930    -4.3880    -3.2650 ch         1 LZC       0.254500
     20 N20          7.2140    -4.8660    -3.7650 n1         1 LZC      -0.390800
     21 C21          3.9720    -4.4610    -2.2560 cd         1 LZC       0.467500
     22 N22          3.1010    -3.5850    -1.7360 nc         1 LZC      -0.590100
     23 N23          3.7560    -2.3810    -1.7800 na         1 LZC      -0.002800
     24 H1C1        -0.6090    -0.6700     0.5950 hc         1 LZC       0.053200
     25 H1C2        -0.1280    -0.4300    -0.9860 hc         1 LZC       0.053200
     26 H1C3        -0.1390     1.0740    -0.0320 hc         1 LZC       0.053200
     27 H2           1.9010     0.9940    -0.2190 h1         1 LZC       0.083700
     28 H3C1         1.3530     0.0620     2.1920 hc         1 LZC       0.053200
     29 H3C2         2.3660    -0.9570     1.8520 hc         1 LZC       0.053200
     30 H3C3         2.9410     0.5920     1.7720 hc         1 LZC       0.053200
     31 H4           1.6810    -2.0920    -0.7490 hn         1 LZC       0.479800
     32 H6           3.9630     0.9420    -1.0940 ha         1 LZC       0.175000
     33 H8           7.0150     1.1020    -1.6560 hn         1 LZC       0.455800
     34 H9           7.6900    -0.0480    -3.4360 h1         1 LZC       0.098700
     35 H101         7.9840     2.7610    -2.2790 hc         1 LZC       0.082450
     36 H102         7.8540     2.3150    -3.8610 hc         1 LZC       0.082450
     37 H151         8.1540    -1.1390    -1.4030 hc         1 LZC       0.082450
     38 H152         8.3620     0.5940    -0.5650 hc         1 LZC       0.082450
     39 H111        10.1160     2.7720    -3.5740 hc         1 LZC       0.070700
     40 H112         9.7280     1.3170    -4.1850 hc         1 LZC       0.070700
     41 H12         10.2670     1.9520    -1.1740 hx         1 LZC       0.081700
     42 H131        12.2390     0.7480    -1.4180 hn         1 LZC       0.507800
     43 H132        12.3410     1.9480    -2.7950 hn         1 LZC       0.507800
     44 H141        10.3770    -0.9340    -2.1400 hc         1 LZC       0.070700
     45 H142        10.2480    -0.2900    -0.6050 hc         1 LZC       0.070700
     46 H21          3.8260    -5.5080    -2.4930 h4         1 LZC       0.071800
     47 H133        12.2930     1.3450    -1.3240 hn         1 LZC       0.507800
@<TRIPOS>BOND
     1     1     2 1
     2     2     3 1
     3     2     4 1
     4     4     5 1
     5     5     6 2
     6     5    23 1
     7     6     7 1
     8     7     8 1
     9     7    16 2
    10     8     9 1
    11     9    10 1
    12     9    15 1
    13    10    11 1
    14    11    12 1
    15    12    13 1
    16    12    14 1
    17    14    15 1
    18    16    17 1
    19    17    18 2
    20    17    23 1
    21    18    19 1
    22    18    21 1
    23    19    20 3
    24    21    22 2
    25    22    23 1
    26     1    24 1
    27     1    25 1
    28     1    26 1
    29     2    27 1
    30     3    28 1
    31     3    29 1
    32     3    30 1
    33     4    31 1
    34     6    32 1
    35     8    33 1
    36     9    34 1
    37    10    35 1
    38    10    36 1
    39    15    37 1
    40    15    38 1
    41    11    39 1
    42    11    40 1
    43    12    41 1
    44    13    42 1
    45    13    43 1
    46    14    44 1
    47    14    45 1
    48    21    46 1
    49    47    13 1
@<TRIPOS>SUBSTRUCTURE
     1 LZC         1 TEMP              0 ****  ****    0 ROOT
