@<TRIPOS>MOLECULE
LZD
   42    44     1     0     0
SMALL
bcc


@<TRIPOS>ATOM
      1 C2           0.0000     0.0000     0.0000 c3         1 LZD       0.146800
      2 C3           1.5250     0.0000     0.0000 c3         1 LZD      -0.016400
      3 C4           2.0740     0.0000     1.4220 c3         1 LZD      -0.029400
      4 C5           1.5060     1.1790     2.2120 c3         1 LZD       0.003700
      5 N6           1.9960     1.1900     3.5930 ns         1 LZD      -0.155900
      6 C7           2.0820     2.3480     4.2870 c          1 LZD       0.527600
      7 O8           1.7410     3.4280     3.8130 o          1 LZD      -0.675100
      8 C9           2.5800     2.2600     5.6740 cc         1 LZD       0.240800
      9 N10          3.2090     1.1610     6.1750 nd         1 LZD      -0.689800
     10 N11          3.4950     1.4700     7.4670 na         1 LZD       0.564400
     11 C12          3.0860     2.7200     7.7850 cd         1 LZD      -0.325300
     12 C13          2.4810     3.2470     6.6460 cc         1 LZD      -0.203700
     13 N14          1.8680     4.4740     6.4330 ns         1 LZD       0.031900
     14 C15          1.5620     5.3820     7.3790 c          1 LZD       0.592700
     15 O16          1.9130     5.2720     8.5570 o          1 LZD      -0.634100
     16 C17          0.7580     6.5550     6.9170 ca         1 LZD      -0.221600
     17 C18         -0.5210     6.3910     6.3720 ca         1 LZD       0.169900
     18 F19         -1.0180     5.1420     6.2560 f          1 LZD      -0.118900
     19 C20         -1.2740     7.4850     5.9420 ca         1 LZD      -0.151000
     20 C21         -0.7550     8.7640     6.0680 ca         1 LZD      -0.032000
     21 C22          0.5100     8.9450     6.6120 ca         1 LZD      -0.151000
     22 C23          1.2470     7.8380     7.0320 ca         1 LZD       0.169900
     23 F24          2.4760     8.0070     7.5540 f          1 LZD      -0.118900
     24 C25         -0.0320     1.1630     2.1690 c3         1 LZD       0.134800
     25 N26         -0.5230     1.1710     0.7610 n7         1 LZD      -0.576200
     26 H2C1        -0.3560     0.0520    -1.0220 h1         1 LZD       0.005200
     27 H2C2        -0.3560    -0.9130     0.4620 h1         1 LZD       0.005200
     28 H3C1         1.8790     0.8840    -0.5160 hc         1 LZD       0.021200
     29 H3C2         1.8790    -0.8840    -0.5160 hc         1 LZD       0.021200
     30 H26         -1.5230     1.1520     0.7560 hn         1 LZD       0.254800
     31 H4C1         1.7950    -0.9250     1.9120 hc         1 LZD       0.016200
     32 H4C2         3.1540     0.0810     1.3880 hc         1 LZD       0.016200
     33 H5           1.8400     2.0900     1.7300 h1         1 LZD       0.062700
     34 H6           2.2710     0.3320     4.0280 hn         1 LZD       0.191500
     35 H251        -0.3920     0.2700     2.6660 h1         1 LZD       0.013700
     36 H252        -0.4110     2.0390     2.6820 h1         1 LZD       0.013700
     37 H12          3.1930     3.2100     8.7450 h4         1 LZD       0.187000
     38 H20         -2.2610     7.3360     5.5210 ha         1 LZD       0.127000
     39 H21         -1.3320     9.6190     5.7390 ha         1 LZD       0.111000
     40 H22          0.9200     9.9430     6.7140 ha         1 LZD       0.127000
     41 H11          3.9640     0.8540     8.1020 hn         1 LZD       0.136700
     42 H14          1.6320     4.7060     5.4880 hn         1 LZD       0.207500
@<TRIPOS>BOND
     1     1     2 1   
     2     1    25 1   
     3     1    26 1   
     4     1    27 1   
     5     2     3 1   
     6     2    28 1   
     7     2    29 1   
     8     3     4 1   
     9     3    31 1   
    10     3    32 1   
    11     4     5 1   
    12     4    24 1   
    13     4    33 1   
    14     5     6 1   
    15     5    34 1   
    16     6     7 2   
    17     6     8 1   
    18     8     9 2   
    19     8    12 1   
    20     9    10 1   
    21    10    11 1   
    22    10    41 1   
    23    11    12 2   
    24    11    37 1   
    25    12    13 1   
    26    13    14 1   
    27    13    42 1   
    28    14    15 2   
    29    14    16 1   
    30    16    17 ar  
    31    16    22 ar  
    32    17    18 1   
    33    17    19 ar  
    34    19    20 ar  
    35    19    38 1   
    36    20    21 ar  
    37    20    39 1   
    38    21    22 ar  
    39    21    40 1   
    40    22    23 1   
    41    24    25 1   
    42    24    35 1   
    43    24    36 1   
    44    25    30 1   
@<TRIPOS>SUBSTRUCTURE
     1 LZD         1 TEMP              0 ****  ****    0 ROOT
