@<TRIPOS>MOLECULE
molecule
   42    44     1     0     0
SMALL
bcc


@<TRIPOS>ATOM
      1 C26          0.0000     0.0000     0.0000 c3         1 LZE       0.163800
      2 C25          1.5310     0.0000     0.0000 c3         1 LZE      -0.090400
      3 C5           2.0580     0.0000     1.4370 c3         1 LZE       0.106700
      4 N6           3.5180    -0.0180     1.4660 ns         1 LZE      -0.554900
      5 C7           4.2340    -1.1710     1.5320 c          1 LZE       0.608600
      6 O8           3.7160    -2.2910     1.6790 o          1 LZE      -0.637100
      7 C9           5.6920    -1.0390     1.4190 cc         1 LZE       0.228800
      8 N10          6.3640     0.1520     1.4790 nd         1 LZE      -0.504800
      9 N11          7.6700    -0.1760     1.3090 na         1 LZE       0.010400
     10 C12          7.8250    -1.5240     1.1710 cd         1 LZE      -0.158300
     11 C13          6.5700    -2.0900     1.2320 cc         1 LZE      -0.060700
     12 N14          6.1610    -3.4180     1.1180 ns         1 LZE      -0.427100
     13 C15          6.9390    -4.4350     0.6970 c          1 LZE       0.681700
     14 O16          8.1410    -4.3010     0.4700 o          1 LZE      -0.588100
     15 C17          6.2630    -5.7640     0.5900 ca         1 LZE      -0.129600
     16 C18          6.5680    -6.7740     1.4700 ca         1 LZE       0.061400
     17 C20          5.9210    -8.0100     1.4060 ca         1 LZE      -0.127000
     18 C21          4.9540    -8.2280     0.4420 ca         1 LZE      -0.096000
     19 C22          4.6200    -7.2120    -0.4350 ca         1 LZE      -0.127000
     20 C23          5.2770    -5.9910    -0.3540 ca         1 LZE       0.061400
     21 C4           1.4980     1.2050     2.2040 c3         1 LZE      -0.090400
     22 N24         -0.5280     1.1600     0.7720 n7         1 LZE      -0.828200
     23 C3          -0.0290     1.1850     2.1780 c3         1 LZE       0.163800
     24 Cl1          4.8820    -4.7490    -1.4830 cl         1 LZE      -0.076900
     25 Cl7          7.7760    -6.5090     2.6690 cl         1 LZE      -0.076900
     26 H261        -0.3550     0.0620    -1.0220 h1         1 LZE       0.035700
     27 H262        -0.3550    -0.9190     0.4510 h1         1 LZE       0.035700
     28 H251         1.8890     0.8850    -0.5120 hc         1 LZE       0.054950
     29 H252         1.8890    -0.8850    -0.5120 hc         1 LZE       0.054950
     30 H24         -1.5290     1.1320     0.7740 hn         1 LZE       0.355800
     31 H5           1.6980    -0.8990     1.9220 h1         1 LZE       0.073700
     32 H6           4.0100     0.8530     1.4370 hn         1 LZE       0.332500
     33 H4C1         1.8390     1.1630     3.2320 hc         1 LZE       0.054950
     34 H4C2         1.8510     2.1180     1.7410 hc         1 LZE       0.054950
     35 H11          8.4230     0.4840     1.3030 hn         1 LZE       0.334700
     36 H12          8.7610    -2.0510     1.0270 h4         1 LZE       0.210000
     37 H14          5.2170    -3.6330     1.3700 hn         1 LZE       0.364500
     38 H20          6.1830    -8.7980     2.1030 ha         1 LZE       0.153000
     39 H21          4.4470    -9.1840     0.3860 ha         1 LZE       0.146000
     40 H22          3.8570    -7.3710    -1.1870 ha         1 LZE       0.153000
     41 H3C1        -0.4050     2.0720     2.6740 h1         1 LZE       0.035700
     42 H3C2        -0.3820     0.3020     2.6970 h1         1 LZE       0.035700
@<TRIPOS>BOND
     1     1     2 1
     2     1    22 1
     3     2     3 1
     4     3     4 1
     5     3    21 1
     6     4     5 1
     7     5     6 2
     8     5     7 1
     9     7     8 2
    10     7    11 1
    11     8     9 1
    12     9    10 1
    13    10    11 2
    14    11    12 1
    15    12    13 1
    16    13    14 2
    17    13    15 1
    18    15    16 ar
    19    15    20 ar
    20    16    17 ar
    21    16    25 1
    22    17    18 ar
    23    18    19 ar
    24    19    20 ar
    25    20    24 1
    26    21    23 1
    27    22    23 1
    28     1    26 1
    29     1    27 1
    30     2    28 1
    31     2    29 1
    32    22    30 1
    33     3    31 1
    34     4    32 1
    35    21    33 1
    36    21    34 1
    37     9    35 1
    38    10    36 1
    39    12    37 1
    40    17    38 1
    41    18    39 1
    42    19    40 1
    43    23    41 1
    44    23    42 1
@<TRIPOS>SUBSTRUCTURE
     1 LZE         1 TEMP              0 ****  ****    0 ROOT
