@<TRIPOS>MOLECULE
LZF
   56    59     1     0     0
SMALL
bcc


@<TRIPOS>ATOM
      1 F32          0.0000     0.0000     0.0000 f          1 LZF      -0.120900
      2 C17          1.3360     0.0000     0.0000 ca         1 LZF       0.097900
      3 C11          1.9620     0.0000     1.2450 ca         1 LZF      -0.104000
      4 C9           3.3450     0.0160     1.3160 ca         1 LZF      -0.077400
      5 N1           3.9670     0.0070     2.5860 n          1 LZF       0.148800
      6 C21          4.2870     1.1820     3.2970 cc         1 LZF      -0.108400
      7 C29          4.8910     1.1140     4.5110 cd         1 LZF      -0.205000
      8 C30          5.1870    -0.1510     5.0790 cd         1 LZF      -0.018000
      9 C23          4.8750    -1.3000     4.4140 cc         1 LZF      -0.232200
     10 C8           4.2540    -1.2490     3.1420 c          1 LZF       0.600700
     11 O25          3.9530    -2.2580     2.5040 o          1 LZF      -0.664500
     12 C26          4.0800     0.0100     0.1270 ca         1 LZF      -0.075000
     13 C28          3.4590     0.0130    -1.1290 ca         1 LZF      -0.050000
     14 C16          2.0660     0.0080    -1.1910 ca         1 LZF      -0.102400
     15 N15          1.4500    -0.0190    -2.4040 ns         1 LZF      -0.060100
     16 C14          1.3980    -1.1890    -3.0780 c          1 LZF       0.567100
     17 O27          1.9260    -2.1980    -2.6520 o          1 LZF      -0.620100
     18 C22          0.6830    -1.2740    -4.4090 c3         1 LZF       0.086800
     19 N4           0.1340     0.0430    -4.7500 n3         1 LZF      -0.569600
     20 C20         -0.8950    -0.0170    -5.8090 c3         1 LZF       0.131800
     21 C13         -0.8860     1.3980    -6.3910 c3         1 LZF       0.155100
     22 O33         -1.2740     1.4810    -7.7660 os         1 LZF      -0.403600
     23 C34         -2.5470     0.8990    -8.0740 c3         1 LZF       0.249700
     24 C18          1.1830     0.9980    -5.1870 c3         1 LZF       0.125800
     25 C6           0.5540     1.8690    -6.2740 c3         1 LZF       0.022700
     26 N7           0.4570     3.2520    -5.7880 ns         1 LZF      -0.182900
     27 C5           1.4610     4.1160    -5.9270 c          1 LZF       0.624700
     28 O24          2.4890     3.7650    -6.4300 o          1 LZF      -0.641100
     29 C2           1.3770     5.5220    -5.4570 cc         1 LZF      -0.109700
     30 C12          0.3100     6.3550    -5.1490 cd         1 LZF      -0.063000
     31 C19          0.7190     7.6180    -4.7570 cd         1 LZF      -0.101000
     32 S3           2.9600     6.2330    -5.2870 ss         1 LZF      -0.087800
     33 C10          2.0940     7.6200    -4.7730 cc         1 LZF       0.015300
     34 Cl1          3.1330     9.0350    -4.3050 cl         1 LZF      -0.001400
     35 H11          1.3720     0.1010     2.1470 ha         1 LZF       0.127000
     36 H26          5.1620     0.0180     0.1780 ha         1 LZF       0.112000
     37 H21          4.0610     2.1490     2.8640 h4         1 LZF       0.124000
     38 H29          5.1380     2.0220     5.0480 ha         1 LZF       0.122000
     39 H30          5.6650    -0.2050     6.0490 ha         1 LZF       0.104000
     40 H23          5.1070    -2.2590     4.8620 ha         1 LZF       0.134000
     41 H28          4.0510     0.0130    -2.0360 ha         1 LZF       0.122000
     42 H15          0.8770     0.7500    -2.6910 hn         1 LZF       0.196500
     43 H221         1.3830    -1.5840    -5.1760 h1         1 LZF       0.041700
     44 H222        -0.1220    -1.9960    -4.3420 h1         1 LZF       0.041700
     45 H201        -0.6190    -0.7410    -6.5660 h1         1 LZF       0.028200
     46 H202        -1.8640    -0.2470    -5.3850 h1         1 LZF       0.028200
     47 H181         1.4930     1.6140    -4.3520 h1         1 LZF       0.033700
     48 H182         2.0310     0.4570    -5.5910 h1         1 LZF       0.033700
     49 H13         -1.5230     2.0370    -5.7910 h1         1 LZF       0.021700
     50 H6           1.0840     1.7960    -7.2160 h1         1 LZF       0.084700
     51 H341        -2.9460     1.3560    -8.9710 h1         1 LZF      -0.008300
     52 H342        -2.4280    -0.1660    -8.2340 h1         1 LZF      -0.008300
     53 H343        -3.2290     1.0660    -7.2490 h1         1 LZF      -0.008300
     54 H7          -0.3870     3.5530    -5.3410 hn         1 LZF       0.180500
     55 H12         -0.7280     6.0570    -5.2300 ha         1 LZF       0.119000
     56 H19          0.0770     8.4390    -4.4600 ha         1 LZF       0.142000
@<TRIPOS>BOND
     1     1     2 1   
     2     2     3 ar  
     3     2    14 ar  
     4     3     4 ar  
     5     3    35 1   
     6     4     5 1   
     7     4    12 ar  
     8     5     6 1   
     9     5    10 1   
    10     6     7 2   
    11     6    37 1   
    12     7     8 1   
    13     7    38 1   
    14     8     9 2   
    15     8    39 1   
    16     9    10 1   
    17     9    40 1   
    18    10    11 2   
    19    12    13 ar  
    20    12    36 1   
    21    13    14 ar  
    22    13    41 1   
    23    14    15 1   
    24    15    16 1   
    25    15    42 1   
    26    16    17 2   
    27    16    18 1   
    28    18    19 1   
    29    18    43 1   
    30    18    44 1   
    31    19    20 1   
    32    19    24 1   
    33    20    21 1   
    34    20    45 1   
    35    20    46 1   
    36    21    22 1   
    37    21    25 1   
    38    21    49 1   
    39    22    23 1   
    40    23    51 1   
    41    23    52 1   
    42    23    53 1   
    43    24    25 1   
    44    24    47 1   
    45    24    48 1   
    46    25    26 1   
    47    25    50 1   
    48    26    27 1   
    49    26    54 1   
    50    27    28 2   
    51    27    29 1   
    52    29    30 2   
    53    29    32 1   
    54    30    31 1   
    55    30    55 1   
    56    31    33 2   
    57    31    56 1   
    58    32    33 1   
    59    33    34 1   
@<TRIPOS>SUBSTRUCTURE
     1 LZF         1 TEMP              0 ****  ****    0 ROOT
