@<TRIPOS>MOLECULE
molecule
   56    59     1     0     0
SMALL
bcc


@<TRIPOS>ATOM
      1 F32          0.0000     0.0000     0.0000 f          1 LZF      -0.133900
      2 C17          1.3360     0.0000     0.0000 ca         1 LZF       0.125900
      3 C11          1.9620     0.0000     1.2450 ca         1 LZF      -0.149000
      4 C9           3.3450     0.0160     1.3160 ca         1 LZF       0.060600
      5 N1           3.9670     0.0070     2.5860 n          1 LZF      -0.282200
      6 C21          4.2870     1.1820     3.2970 cc         1 LZF       0.027600
      7 C29          4.8910     1.1140     4.5110 cd         1 LZF      -0.243000
      8 C30          5.1870    -0.1510     5.0790 cd         1 LZF      -0.044000
      9 C23          4.8750    -1.3000     4.4140 cc         1 LZF      -0.253200
     10 C8           4.2540    -1.2490     3.1420 c          1 LZF       0.689700
     11 O25          3.9530    -2.2580     2.5040 o          1 LZF      -0.618500
     12 C26          4.0800     0.0100     0.1270 ca         1 LZF      -0.121000
     13 C28          3.4590     0.0130    -1.1290 ca         1 LZF      -0.083000
     14 C16          2.0660     0.0080    -1.1910 ca         1 LZF       0.016600
     15 N15          1.4500    -0.0190    -2.4040 ns         1 LZF      -0.475100
     16 C14          1.3980    -1.1890    -3.0780 c          1 LZF       0.664100
     17 O27          1.9260    -2.1980    -2.6520 o          1 LZF      -0.580100
     18 C22          0.6830    -1.2740    -4.4090 c3         1 LZF       0.091800
     19 N4           0.1340     0.0430    -4.7500 n3         1 LZF      -0.752600
     20 C20         -0.8950    -0.0170    -5.8090 c3         1 LZF       0.131800
     21 C13         -0.8860     1.3980    -6.3910 c3         1 LZF       0.122100
     22 O33         -1.2740     1.4810    -7.7660 os         1 LZF      -0.417600
     23 C34         -2.5470     0.8990    -8.0740 c3         1 LZF       0.125700
     24 C18          1.1830     0.9980    -5.1870 c3         1 LZF       0.133800
     25 C6           0.5540     1.8690    -6.2740 c3         1 LZF       0.122700
     26 N7           0.4570     3.2520    -5.7880 ns         1 LZF      -0.568900
     27 C5           1.4610     4.1160    -5.9270 c          1 LZF       0.698700
     28 O24          2.4890     3.7650    -6.4300 o          1 LZF      -0.612100
     29 C2           1.3770     5.5220    -5.4570 cc         1 LZF      -0.172700
     30 C12          0.3100     6.3550    -5.1490 cd         1 LZF      -0.098000
     31 C19          0.7190     7.6180    -4.7570 cd         1 LZF      -0.127000
     32 S3           2.9600     6.2330    -5.2870 ss         1 LZF       0.104200
     33 C10          2.0940     7.6200    -4.7730 cc         1 LZF       0.025300
     34 Cl1          3.1330     9.0350    -4.3050 cl         1 LZF      -0.119400
     35 H11          1.3720     0.1010     2.1470 ha         1 LZF       0.156000
     36 H26          5.1620     0.0180     0.1780 ha         1 LZF       0.144000
     37 H21          4.0610     2.1490     2.8640 h4         1 LZF       0.157000
     38 H29          5.1380     2.0220     5.0480 ha         1 LZF       0.150000
     39 H30          5.6650    -0.2050     6.0490 ha         1 LZF       0.136000
     40 H23          5.1070    -2.2590     4.8620 ha         1 LZF       0.164000
     41 H28          4.0510     0.0130    -2.0360 ha         1 LZF       0.155000
     42 H15          0.8770     0.7500    -2.6910 hn         1 LZF       0.346500
     43 H221         1.3830    -1.5840    -5.1760 h1         1 LZF       0.073700
     44 H222        -0.1220    -1.9960    -4.3420 h1         1 LZF       0.073700
     45 H201        -0.6190    -0.7410    -6.5660 h1         1 LZF       0.057200
     46 H202        -1.8640    -0.2470    -5.3850 h1         1 LZF       0.057200
     47 H181         1.4930     1.6140    -4.3520 h1         1 LZF       0.062700
     48 H182         2.0310     0.4570    -5.5910 h1         1 LZF       0.062700
     49 H13         -1.5230     2.0370    -5.7910 h1         1 LZF       0.048700
     50 H6           1.0840     1.7960    -7.2160 h1         1 LZF       0.113700
     51 H341        -2.9460     1.3560    -8.9710 h1         1 LZF       0.035033
     52 H342        -2.4280    -0.1660    -8.2340 h1         1 LZF       0.035033
     53 H343        -3.2290     1.0660    -7.2490 h1         1 LZF       0.035033
     54 H7          -0.3870     3.5530    -5.3410 hn         1 LZF       0.319500
     55 H12         -0.7280     6.0570    -5.2300 ha         1 LZF       0.152000
     56 H19          0.0770     8.4390    -4.4600 ha         1 LZF       0.174000
@<TRIPOS>BOND
     1     1     2 1
     2     2     3 ar
     3     2    14 ar
     4     3     4 ar
     5     4     5 1
     6     4    12 ar
     7     5     6 1
     8     5    10 1
     9     6     7 2
    10     7     8 1
    11     8     9 2
    12     9    10 1
    13    10    11 2
    14    12    13 ar
    15    13    14 ar
    16    14    15 1
    17    15    16 1
    18    16    17 2
    19    16    18 1
    20    18    19 1
    21    19    20 1
    22    19    24 1
    23    20    21 1
    24    21    22 1
    25    21    25 1
    26    22    23 1
    27    24    25 1
    28    25    26 1
    29    26    27 1
    30    27    28 2
    31    27    29 1
    32    29    30 2
    33    29    32 1
    34    30    31 1
    35    31    33 2
    36    32    33 1
    37    33    34 1
    38     3    35 1
    39    12    36 1
    40     6    37 1
    41     7    38 1
    42     8    39 1
    43     9    40 1
    44    13    41 1
    45    15    42 1
    46    18    43 1
    47    18    44 1
    48    20    45 1
    49    20    46 1
    50    24    47 1
    51    24    48 1
    52    21    49 1
    53    25    50 1
    54    23    51 1
    55    23    52 1
    56    23    53 1
    57    26    54 1
    58    30    55 1
    59    31    56 1
@<TRIPOS>SUBSTRUCTURE
     1 LZF         1 TEMP              0 ****  ****    0 ROOT
