@<TRIPOS>MOLECULE
LZG
   52    55     1     0     0
SMALL
bcc


@<TRIPOS>ATOM
      1 Cl1          0.0000     0.0000     0.0000 cl         1 LZG       0.058600
      2 C10          1.7390     0.0000     0.0000 cc         1 LZG       0.014300
      3 C19          2.5960     0.0000     1.0790 cd         1 LZG      -0.120000
      4 C13          3.9620     0.0200     0.6750 cd         1 LZG      -0.072000
      5 S3           2.5620     0.0390    -1.5200 ss         1 LZG      -0.110800
      6 C2           4.0850     0.0460    -0.7100 cc         1 LZG      -0.090700
      7 C5           5.2900     0.0460    -1.5250 c          1 LZG       0.623700
      8 O24          5.2680    -0.1140    -2.7580 o          1 LZG      -0.636100
      9 N7           6.4980     0.3180    -0.9320 ns         1 LZG      -0.195900
     10 C6           7.7190     0.3030    -1.7600 c3         1 LZG      -0.008300
     11 C12          8.9330     0.2880    -0.8320 c3         1 LZG       0.161600
     12 F32          9.5250    -0.9650    -0.8150 f          1 LZG      -0.212300
     13 C20          9.8490     1.3820    -1.3690 c3         1 LZG       0.129800
     14 C18          7.8560     1.5420    -2.6330 c3         1 LZG       0.136800
     15 N4           8.9210     2.3390    -1.9890 n3         1 LZG      -0.556600
     16 C22          9.6230     3.1270    -2.9930 c3         1 LZG       0.081800
     17 C14          8.8230     4.3600    -3.2810 c          1 LZG       0.580100
     18 O27          9.1340     5.1130    -4.2280 o          1 LZG      -0.596100
     19 N15          7.6930     4.6550    -2.4430 ns         1 LZG      -0.112100
     20 C16          6.9420     5.8610    -2.7300 ca         1 LZG      -0.091400
     21 C17          6.2900     6.0040    -3.9560 ca         1 LZG       0.134900
     22 F33          6.3470     4.9690    -4.8150 f          1 LZG      -0.120900
     23 C28          6.8980     6.9130    -1.8190 ca         1 LZG      -0.091000
     24 C26          6.2070     8.0870    -2.1180 ca         1 LZG      -0.083000
     25 C9           5.5490     8.1750    -3.3630 ca         1 LZG      -0.091400
     26 C11          5.5820     7.1500    -4.3100 ca         1 LZG      -0.074000
     27 N1           4.8970     9.3990    -3.7030 n          1 LZG       0.142800
     28 C8           5.5690    10.2660    -4.6080 c          1 LZG       0.591700
     29 O25          6.7070     9.8610    -5.0650 o          1 LZG      -0.684500
     30 C23          4.9140    11.4890    -4.9430 cc         1 LZG      -0.221200
     31 C30          3.6990    11.8430    -4.4270 cd         1 LZG      -0.011000
     32 C29          3.0490    10.9440    -3.5230 cd         1 LZG      -0.205000
     33 C21          3.6350     9.7700    -3.1580 cc         1 LZG      -0.105400
     34 H19          2.2700    -0.0220     2.1120 ha         1 LZG       0.134000
     35 H13          4.8000     0.0210     1.3610 ha         1 LZG       0.122000
     36 H7           6.5710     0.3500     0.0650 hn         1 LZG       0.180500
     37 H6           7.7310    -0.5830    -2.3840 h1         1 LZG       0.068700
     38 H12          8.6160     0.5520     0.1700 h1         1 LZG       0.032700
     39 H181         8.1510     1.2630    -3.6380 h1         1 LZG       0.045700
     40 H182         6.9260     2.0970    -2.6460 h1         1 LZG       0.045700
     41 H201        10.3940     1.8520    -0.5600 h1         1 LZG       0.033200
     42 H202        10.5280     0.9780    -2.1110 h1         1 LZG       0.033200
     43 H221        10.6000     3.4070    -2.6180 h1         1 LZG       0.045700
     44 H222         9.7340     2.5450    -3.9000 h1         1 LZG       0.045700
     45 H15          7.6010     4.2070    -1.5530 hn         1 LZG       0.196500
     46 H28          7.4110     6.8220    -0.8700 ha         1 LZG       0.108000
     47 H11          5.0760     7.2380    -5.2640 ha         1 LZG       0.138000
     48 H26          6.1660     8.9040    -1.4080 ha         1 LZG       0.117000
     49 H21          3.1260     9.1030    -2.4730 h4         1 LZG       0.126000
     50 H23          5.4050    12.1690    -5.6290 ha         1 LZG       0.129000
     51 H30          3.2300    12.7780    -4.7100 ha         1 LZG       0.109000
     52 H29          2.0870    11.2120    -3.1040 ha         1 LZG       0.119000
@<TRIPOS>BOND
     1     1     2 1   
     2     2     3 2   
     3     2     5 1   
     4     3     4 1   
     5     3    34 1   
     6     4     6 2   
     7     4    35 1   
     8     5     6 1   
     9     6     7 1   
    10     7     8 2   
    11     7     9 1   
    12     9    10 1   
    13     9    36 1   
    14    10    11 1   
    15    10    14 1   
    16    10    37 1   
    17    11    12 1   
    18    11    13 1   
    19    11    38 1   
    20    13    15 1   
    21    13    41 1   
    22    13    42 1   
    23    14    15 1   
    24    14    39 1   
    25    14    40 1   
    26    15    16 1   
    27    16    17 1   
    28    16    43 1   
    29    16    44 1   
    30    17    18 2   
    31    17    19 1   
    32    19    20 1   
    33    19    45 1   
    34    20    21 ar  
    35    20    23 ar  
    36    21    22 1   
    37    21    26 ar  
    38    23    24 ar  
    39    23    46 1   
    40    24    25 ar  
    41    24    48 1   
    42    25    26 ar  
    43    25    27 1   
    44    26    47 1   
    45    27    28 1   
    46    27    33 1   
    47    28    29 2   
    48    28    30 1   
    49    30    31 2   
    50    30    50 1   
    51    31    32 1   
    52    31    51 1   
    53    32    33 2   
    54    32    52 1   
    55    33    49 1   
@<TRIPOS>SUBSTRUCTURE
     1 LZG         1 TEMP              0 ****  ****    0 ROOT
