@<TRIPOS>MOLECULE
molecule
   52    55     1     0     0
SMALL
bcc


@<TRIPOS>ATOM
      1 Cl1          0.0000     0.0000     0.0000 cl         1 LZG      -0.054400
      2 C10          1.7390     0.0000     0.0000 cc         1 LZG       0.023300
      3 C19          2.5960     0.0000     1.0790 cd         1 LZG      -0.147000
      4 C13          3.9620     0.0200     0.6750 cd         1 LZG      -0.104000
      5 S3           2.5620     0.0390    -1.5200 ss         1 LZG       0.081200
      6 C2           4.0850     0.0460    -0.7100 cc         1 LZG      -0.154700
      7 C5           5.2900     0.0460    -1.5250 c          1 LZG       0.692700
      8 O24          5.2680    -0.1140    -2.7580 o          1 LZG      -0.610100
      9 N7           6.4980     0.3180    -0.9320 ns         1 LZG      -0.572900
     10 C6           7.7190     0.3030    -1.7600 c3         1 LZG       0.084700
     11 C12          8.9330     0.2880    -0.8320 c3         1 LZG       0.153600
     12 F32          9.5250    -0.9650    -0.8150 f          1 LZG      -0.228300
     13 C20          9.8490     1.3820    -1.3690 c3         1 LZG       0.118800
     14 C18          7.8560     1.5420    -2.6330 c3         1 LZG       0.136800
     15 N4           8.9210     2.3390    -1.9890 n3         1 LZG      -0.720600
     16 C22          9.6230     3.1270    -2.9930 c3         1 LZG       0.085800
     17 C14          8.8230     4.3600    -3.2810 c          1 LZG       0.662100
     18 O27          9.1340     5.1130    -4.2280 o          1 LZG      -0.567100
     19 N15          7.6930     4.6550    -2.4430 ns         1 LZG      -0.500100
     20 C16          6.9420     5.8610    -2.7300 ca         1 LZG       0.019600
     21 C17          6.2900     6.0040    -3.9560 ca         1 LZG       0.155900
     22 F33          6.3470     4.9690    -4.8150 f          1 LZG      -0.126900
     23 C28          6.8980     6.9130    -1.8190 ca         1 LZG      -0.122000
     24 C26          6.2070     8.0870    -2.1180 ca         1 LZG      -0.124000
     25 C9           5.5490     8.1750    -3.3630 ca         1 LZG       0.047600
     26 C11          5.5820     7.1500    -4.3100 ca         1 LZG      -0.123000
     27 N1           4.8970     9.3990    -3.7030 n          1 LZG      -0.281200
     28 C8           5.5690    10.2660    -4.6080 c          1 LZG       0.678700
     29 O25          6.7070     9.8610    -5.0650 o          1 LZG      -0.641500
     30 C23          4.9140    11.4890    -4.9430 cc         1 LZG      -0.240200
     31 C30          3.6990    11.8430    -4.4270 cd         1 LZG      -0.039000
     32 C29          3.0490    10.9440    -3.5230 cd         1 LZG      -0.244000
     33 C21          3.6350     9.7700    -3.1580 cc         1 LZG       0.026600
     34 H19          2.2700    -0.0220     2.1120 ha         1 LZG       0.167000
     35 H13          4.8000     0.0210     1.3610 ha         1 LZG       0.154000
     36 H7           6.5710     0.3500     0.0650 hn         1 LZG       0.317500
     37 H6           7.7310    -0.5830    -2.3840 h1         1 LZG       0.092700
     38 H12          8.6160     0.5520     0.1700 h1         1 LZG       0.061700
     39 H181         8.1510     1.2630    -3.6380 h1         1 LZG       0.076200
     40 H182         6.9260     2.0970    -2.6460 h1         1 LZG       0.076200
     41 H201        10.3940     1.8520    -0.5600 h1         1 LZG       0.062700
     42 H202        10.5280     0.9780    -2.1110 h1         1 LZG       0.062700
     43 H221        10.6000     3.4070    -2.6180 h1         1 LZG       0.077200
     44 H222         9.7340     2.5450    -3.9000 h1         1 LZG       0.077200
     45 H15          7.6010     4.2070    -1.5530 hn         1 LZG       0.344500
     46 H28          7.4110     6.8220    -0.8700 ha         1 LZG       0.139000
     47 H11          5.0760     7.2380    -5.2640 ha         1 LZG       0.170000
     48 H26          6.1660     8.9040    -1.4080 ha         1 LZG       0.149000
     49 H21          3.1260     9.1030    -2.4730 h4         1 LZG       0.160000
     50 H23          5.4050    12.1690    -5.6290 ha         1 LZG       0.160000
     51 H30          3.2300    12.7780    -4.7100 ha         1 LZG       0.143000
     52 H29          2.0870    11.2120    -3.1040 ha         1 LZG       0.147000
@<TRIPOS>BOND
     1     1     2 1
     2     2     3 2
     3     2     5 1
     4     3     4 1
     5     4     6 2
     6     5     6 1
     7     6     7 1
     8     7     8 2
     9     7     9 1
    10     9    10 1
    11    10    11 1
    12    10    14 1
    13    11    12 1
    14    11    13 1
    15    13    15 1
    16    14    15 1
    17    15    16 1
    18    16    17 1
    19    17    18 2
    20    17    19 1
    21    19    20 1
    22    20    21 ar
    23    20    23 ar
    24    21    22 1
    25    21    26 ar
    26    23    24 ar
    27    24    25 ar
    28    25    26 ar
    29    25    27 1
    30    27    28 1
    31    27    33 1
    32    28    29 2
    33    28    30 1
    34    30    31 2
    35    31    32 1
    36    32    33 2
    37     3    34 1
    38     4    35 1
    39     9    36 1
    40    10    37 1
    41    11    38 1
    42    14    39 1
    43    14    40 1
    44    13    41 1
    45    13    42 1
    46    16    43 1
    47    16    44 1
    48    19    45 1
    49    23    46 1
    50    26    47 1
    51    24    48 1
    52    33    49 1
    53    30    50 1
    54    31    51 1
    55    32    52 1
@<TRIPOS>SUBSTRUCTURE
     1 LZG         1 TEMP              0 ****  ****    0 ROOT
