@<TRIPOS>MOLECULE
LZH
   56    59     1     0     0
SMALL
bcc


@<TRIPOS>ATOM
      1 F32          0.0000     0.0000     0.0000 f          1 LZH      -0.114900
      2 C17          1.3410     0.0000     0.0000 ca         1 LZH       0.136900
      3 C11          2.0200     0.0000     1.2320 ca         1 LZH      -0.076000
      4 C9           3.4090    -0.0270     1.2480 ca         1 LZH      -0.104400
      5 N1           4.0790     0.0010     2.5020 n          1 LZH       0.190800
      6 C21          4.7320    -1.1290     2.9860 cc         1 LZH      -0.119400
      7 C29          5.3860    -1.0070     4.1760 cd         1 LZH      -0.214000
      8 C30          5.5550     0.2280     4.8610 cd         1 LZH      -0.018000
      9 C23          4.9900     1.3490     4.3120 cc         1 LZH      -0.220200
     10 C8           4.2960     1.2510     3.0810 c          1 LZH       0.578700
     11 O25          3.7360     2.2670     2.6000 o          1 LZH      -0.676500
     12 C26          4.0880    -0.0550     0.0390 ca         1 LZH      -0.083000
     13 C28          3.4040    -0.0620    -1.1790 ca         1 LZH      -0.098000
     14 C16          2.0160    -0.0290    -1.2110 ca         1 LZH      -0.103400
     15 N15          1.3220    -0.0190    -2.4100 ns         1 LZH      -0.044100
     16 C14          0.5960     1.0930    -2.6730 c          1 LZH       0.555100
     17 C13         -1.3580    -1.9590    -5.3610 c3         1 LZH       0.026700
     18 O27          0.4920     1.9970    -1.8580 o          1 LZH      -0.615100
     19 C24         -0.5700    -1.3540    -6.5370 c3         1 LZH      -0.050400
     20 C22         -0.1330     1.2640    -3.9890 c3         1 LZH       0.094800
     21 N4          -0.1500    -0.0220    -4.6900 n3         1 LZH      -0.581600
     22 C20         -1.0790    -1.0580    -4.1660 c3         1 LZH       0.143800
     23 N7          -0.7530    -3.2870    -5.1450 ns         1 LZH      -0.173900
     24 C5          -1.3200    -4.1540    -4.3140 c          1 LZH       0.611700
     25 O24         -2.3170    -3.8230    -3.6930 o          1 LZH      -0.648100
     26 C2          -0.7440    -5.5350    -4.1140 cc         1 LZH      -0.102700
     27 C12          0.1560    -6.2900    -4.8770 cd         1 LZH      -0.073000
     28 C19          0.4340    -7.5540    -4.3360 cd         1 LZH      -0.096000
     29 S3          -1.3790    -6.3200    -2.7010 ss         1 LZH      -0.090800
     30 C10         -0.3680    -7.6420    -3.2120 cc         1 LZH       0.024300
     31 Cl1         -0.3740    -9.1020    -2.1460 cl         1 LZH      -0.006400
     32 C15         -0.3260     0.0910    -6.1370 c3         1 LZH       0.134500
     33 H11          1.4650    -0.1110     2.1560 ha         1 LZH       0.129000
     34 H26          5.1710    -0.0790     0.0390 ha         1 LZH       0.108000
     35 H21          4.6260    -2.0920     2.5000 h4         1 LZH       0.134000
     36 H29          5.8660    -1.8860     4.5890 ha         1 LZH       0.113000
     37 H30          6.0870     0.2760     5.8040 ha         1 LZH       0.109000
     38 H23          5.1290     2.3140     4.7850 ha         1 LZH       0.135000
     39 H28          3.9620    -0.0850    -2.1080 ha         1 LZH       0.110000
     40 H15          1.6090    -0.6180    -3.1590 hn         1 LZH       0.187500
     41 H221         0.3790     2.0010    -4.5950 h1         1 LZH       0.055700
     42 H222        -1.1490     1.5890    -3.8030 h1         1 LZH       0.055700
     43 H13         -2.4170    -2.0220    -5.5800 h1         1 LZH       0.059700
     44 H241         0.3730    -1.8730    -6.6640 hc         1 LZH       0.029200
     45 H242        -1.1580    -1.3980    -7.4450 hc         1 LZH       0.029200
     46 H201        -1.9970    -0.5990    -3.8180 h1         1 LZH       0.037200
     47 H202        -0.6060    -1.6220    -3.3720 h1         1 LZH       0.037200
     48 H7           0.0850    -3.5370    -5.6300 hn         1 LZH       0.181500
     49 HA           0.5770     0.4670    -6.6030 h1         1 LZH       0.047700
     50 H33         -1.7990     2.8860    -6.6510 ho         1 LZH       0.395000
     51 H12          0.6300    -5.9140    -5.7760 ha         1 LZH       0.114000
     52 H19          1.0940    -8.3140    -4.7370 ha         1 LZH       0.147000
     53 C34         -1.5430     0.9400    -6.5250 c3         1 LZH       0.192400
     54 O33         -1.3250     2.2960    -6.0900 oh         1 LZH      -0.592800
     55 H341        -1.6720     0.9200    -7.6010 h1         1 LZH       0.000200
     56 H342        -2.4310     0.5430    -6.0470 h1         1 LZH       0.000200
@<TRIPOS>BOND
     1     1     2 1   
     2     2     3 ar  
     3     2    14 ar  
     4     3     4 ar  
     5     3    33 1   
     6     4     5 1   
     7     4    12 ar  
     8     5     6 1   
     9     5    10 1   
    10     6     7 2   
    11     6    35 1   
    12     7     8 1   
    13     7    36 1   
    14     8     9 2   
    15     8    37 1   
    16     9    10 1   
    17     9    38 1   
    18    10    11 2   
    19    12    13 ar  
    20    12    34 1   
    21    13    14 ar  
    22    13    39 1   
    23    14    15 1   
    24    15    16 1   
    25    15    40 1   
    26    16    18 2   
    27    16    20 1   
    28    17    19 1   
    29    17    22 1   
    30    17    23 1   
    31    17    43 1   
    32    19    32 1   
    33    19    44 1   
    34    19    45 1   
    35    20    21 1   
    36    20    41 1   
    37    20    42 1   
    38    21    22 1   
    39    21    32 1   
    40    22    46 1   
    41    22    47 1   
    42    23    24 1   
    43    23    48 1   
    44    24    25 2   
    45    24    26 1   
    46    26    27 2   
    47    26    29 1   
    48    27    28 1   
    49    27    51 1   
    50    28    30 2   
    51    28    52 1   
    52    29    30 1   
    53    30    31 1   
    54    32    49 1   
    55    32    53 1   
    56    50    54 1   
    57    53    54 1   
    58    53    55 1   
    59    53    56 1   
@<TRIPOS>SUBSTRUCTURE
     1 LZH         1 TEMP              0 ****  ****    0 ROOT
