@<TRIPOS>MOLECULE
molecule
   56    59     1     0     0
SMALL
bcc


@<TRIPOS>ATOM
      1 F32          0.0000     0.0000     0.0000 f          1 LZH      -0.121900
      2 C17          1.3410     0.0000     0.0000 ca         1 LZH       0.156900
      3 C11          2.0200     0.0000     1.2320 ca         1 LZH      -0.126000
      4 C9           3.4090    -0.0270     1.2480 ca         1 LZH       0.039600
      5 N1           4.0790     0.0010     2.5020 n          1 LZH      -0.250200
      6 C21          4.7320    -1.1290     2.9860 cc         1 LZH       0.018600
      7 C29          5.3860    -1.0070     4.1760 cd         1 LZH      -0.248000
      8 C30          5.5550     0.2280     4.8610 cd         1 LZH      -0.046000
      9 C23          4.9900     1.3490     4.3120 cc         1 LZH      -0.241200
     10 C8           4.2960     1.2510     3.0810 c          1 LZH       0.674700
     11 O25          3.7360     2.2670     2.6000 o          1 LZH      -0.632500
     12 C26          4.0880    -0.0550     0.0390 ca         1 LZH      -0.128000
     13 C28          3.4040    -0.0620    -1.1790 ca         1 LZH      -0.128000
     14 C16          2.0160    -0.0290    -1.2110 ca         1 LZH       0.016600
     15 N15          1.3220    -0.0190    -2.4100 ns         1 LZH      -0.460100
     16 C14          0.5960     1.0930    -2.6730 c          1 LZH       0.649100
     17 C13         -1.3580    -1.9590    -5.3610 c3         1 LZH       0.115700
     18 O27          0.4920     1.9970    -1.8580 o          1 LZH      -0.581100
     19 C24         -0.5700    -1.3540    -6.5370 c3         1 LZH      -0.102400
     20 C22         -0.1330     1.2640    -3.9890 c3         1 LZH       0.119800
     21 N4          -0.1500    -0.0220    -4.6900 n3         1 LZH      -0.781600
     22 C20         -1.0790    -1.0580    -4.1660 c3         1 LZH       0.160800
     23 N7          -0.7530    -3.2870    -5.1450 ns         1 LZH      -0.561900
     24 C5          -1.3200    -4.1540    -4.3140 c          1 LZH       0.685700
     25 O24         -2.3170    -3.8230    -3.6930 o          1 LZH      -0.619100
     26 C2          -0.7440    -5.5350    -4.1140 cc         1 LZH      -0.164700
     27 C12          0.1560    -6.2900    -4.8770 cd         1 LZH      -0.107000
     28 C19          0.4340    -7.5540    -4.3360 cd         1 LZH      -0.121000
     29 S3          -1.3790    -6.3200    -2.7010 ss         1 LZH       0.095200
     30 C10         -0.3680    -7.6420    -3.2120 cc         1 LZH       0.035300
     31 Cl1         -0.3740    -9.1020    -2.1460 cl         1 LZH      -0.121400
     32 C15         -0.3260     0.0910    -6.1370 c3         1 LZH       0.180500
     33 H11          1.4650    -0.1110     2.1560 ha         1 LZH       0.161000
     34 H26          5.1710    -0.0790     0.0390 ha         1 LZH       0.139000
     35 H21          4.6260    -2.0920     2.5000 h4         1 LZH       0.166000
     36 H29          5.8660    -1.8860     4.5890 ha         1 LZH       0.139000
     37 H30          6.0870     0.2760     5.8040 ha         1 LZH       0.142000
     38 H23          5.1290     2.3140     4.7850 ha         1 LZH       0.165000
     39 H28          3.9620    -0.0850    -2.1080 ha         1 LZH       0.140000
     40 H15          1.6090    -0.6180    -3.1590 hn         1 LZH       0.342500
     41 H221         0.3790     2.0010    -4.5950 h1         1 LZH       0.085700
     42 H222        -1.1490     1.5890    -3.8030 h1         1 LZH       0.085700
     43 H13         -2.4170    -2.0220    -5.5800 h1         1 LZH       0.086700
     44 H241         0.3730    -1.8730    -6.6640 hc         1 LZH       0.057700
     45 H242        -1.1580    -1.3980    -7.4450 hc         1 LZH       0.057700
     46 H201        -1.9970    -0.5990    -3.8180 h1         1 LZH       0.066700
     47 H202        -0.6060    -1.6220    -3.3720 h1         1 LZH       0.066700
     48 H7           0.0850    -3.5370    -5.6300 hn         1 LZH       0.320500
     49 HA           0.5770     0.4670    -6.6030 h1         1 LZH       0.080700
     50 H33         -1.7990     2.8860    -6.6510 ho         1 LZH       0.406000
     51 H12          0.6300    -5.9140    -5.7760 ha         1 LZH       0.147000
     52 H19          1.0940    -8.3140    -4.7370 ha         1 LZH       0.180000
     53 C34         -1.5430     0.9400    -6.5250 c3         1 LZH       0.106400
     54 O33         -1.3250     2.2960    -6.0900 oh         1 LZH      -0.613800
     55 H341        -1.6720     0.9200    -7.6010 h1         1 LZH       0.034200
     56 H342        -2.4310     0.5430    -6.0470 h1         1 LZH       0.034200
@<TRIPOS>BOND
     1     1     2 1
     2     2     3 ar
     3     2    14 ar
     4     3     4 ar
     5     4     5 1
     6     4    12 ar
     7     5     6 1
     8     5    10 1
     9     6     7 2
    10     7     8 1
    11     8     9 2
    12     9    10 1
    13    10    11 2
    14    12    13 ar
    15    13    14 ar
    16    14    15 1
    17    15    16 1
    18    16    18 2
    19    16    20 1
    20    17    19 1
    21    17    22 1
    22    17    23 1
    23    19    32 1
    24    20    21 1
    25    21    22 1
    26    21    32 1
    27    54    53 1
    28    53    32 1
    29    23    24 1
    30    24    25 2
    31    24    26 1
    32    26    27 2
    33    26    29 1
    34    27    28 1
    35    28    30 2
    36    29    30 1
    37    30    31 1
    38     3    33 1
    39    12    34 1
    40     6    35 1
    41     7    36 1
    42     8    37 1
    43     9    38 1
    44    13    39 1
    45    15    40 1
    46    20    41 1
    47    20    42 1
    48    17    43 1
    49    19    44 1
    50    19    45 1
    51    22    46 1
    52    22    47 1
    53    23    48 1
    54    32    49 1
    55    54    50 1
    56    53    55 1
    57    53    56 1
    58    27    51 1
    59    28    52 1
@<TRIPOS>SUBSTRUCTURE
     1 LZH         1 TEMP              0 ****  ****    0 ROOT
