@<TRIPOS>MOLECULE
LZI
   66    70     1     0     0
SMALL
bcc


@<TRIPOS>ATOM
      1 O30          0.0000     0.0000     0.0000 o          1 LZI      -0.674500
      2 C7           1.2590     0.0000     0.0000 c          1 LZI       0.605700
      3 C28          2.0840     0.0000     1.1760 cc         1 LZI      -0.230200
      4 C36          3.4440     0.0140     1.0850 cd         1 LZI      -0.012000
      5 C35          4.0770     0.0070    -0.1950 cd         1 LZI      -0.214000
      6 C24          3.3270     0.0280    -1.3260 cc         1 LZI      -0.098400
      7 N2           1.9170     0.0080    -1.2660 n          1 LZI       0.127800
      8 C8           1.1130     0.0290    -2.4770 ca         1 LZI      -0.089400
      9 C11          0.9720     1.2630    -3.1000 ca         1 LZI      -0.114000
     10 C19          0.1900     1.3130    -4.2290 ca         1 LZI       0.077900
     11 F39          0.0590     2.5170    -4.8560 f          1 LZI      -0.137900
     12 C31          0.4950    -1.1240    -2.9540 ca         1 LZI      -0.054000
     13 C34         -0.2790    -1.0580    -4.1220 ca         1 LZI      -0.053000
     14 C18         -0.4290     0.1790    -4.7510 ca         1 LZI      -0.081400
     15 N15         -1.2400     0.2680    -5.9330 ns         1 LZI      -0.092100
     16 C12         -2.5200    -0.3480    -5.8980 c          1 LZI       0.579100
     17 O33         -2.8960    -0.8540    -4.8350 o          1 LZI      -0.609100
     18 C16         -3.4130    -0.3960    -7.0980 c3         1 LZI       0.112800
     19 N1          -2.7420    -0.2140    -8.4000 n3         1 LZI      -0.537600
     20 C5          -3.4280     0.5330    -9.4810 c3         1 LZI       0.091500
     21 C10         -4.7940    -0.0270    -9.6820 c          1 LZI       0.544100
     22 N23         -5.7970     0.8570   -10.0110 ns         1 LZI      -0.194900
     23 O32         -5.0060    -1.2390    -9.5350 o          1 LZI      -0.633100
     24 C21         -1.9000    -1.1120    -8.8470 c3         1 LZI       0.167800
     25 C17         -1.8480    -1.0740   -10.3520 c3         1 LZI       0.027700
     26 C20         -2.6380     0.1480   -10.6850 c3         1 LZI      -0.049400
     27 N13         -0.4910    -0.9200   -10.8550 ns         1 LZI      -0.191900
     28 C6           0.3560    -1.9720   -10.6900 c          1 LZI       0.614700
     29 O29         -0.0590    -2.9890   -10.1220 o          1 LZI      -0.631100
     30 C3           1.6910    -1.8300   -11.1860 cc         1 LZI      -0.102700
     31 C14          2.2380    -0.7660   -11.8390 cd         1 LZI      -0.066000
     32 C22          3.5810    -1.0080   -12.1720 cd         1 LZI      -0.114000
     33 C9           3.9610    -2.2370   -11.6980 cc         1 LZI      -0.000700
     34 S4           2.7560    -3.1600   -10.9250 ss         1 LZI      -0.086800
     35 Cl3          5.5400    -2.9420   -11.7390 cl         1 LZI       0.045600
     36 C37         -7.1580     0.4820   -10.3170 c3         1 LZI       0.089000
     37 C25         -8.0860     1.7020   -10.3540 cx         1 LZI      -0.139700
     38 C27         -9.0510     1.8260   -11.5000 cx         1 LZI      -0.072900
     39 C26         -7.8680     2.7460   -11.4140 cx         1 LZI      -0.072900
     40 H28          1.6160     0.0060     2.1540 ha         1 LZI       0.131000
     41 H36          4.0460     0.0060     1.9850 ha         1 LZI       0.104000
     42 H35          5.1580     0.0210    -0.2630 ha         1 LZI       0.121000
     43 H24          3.8190     0.0280    -2.2910 h4         1 LZI       0.124000
     44 H11          1.2020     2.1720    -2.5590 ha         1 LZI       0.137000
     45 H31          0.6310    -2.0680    -2.4410 ha         1 LZI       0.119000
     46 H34         -0.7630    -1.9430    -4.5170 ha         1 LZI       0.136000
     47 H15         -1.0340     0.9570    -6.6300 hn         1 LZI       0.187500
     48 H161        -4.1630     0.3780    -6.9930 h1         1 LZI       0.045200
     49 H162        -3.9140    -1.3570    -7.1080 h1         1 LZI       0.045200
     50 H5          -3.4270     1.6030    -9.3120 h1         1 LZI       0.044700
     51 H211        -0.9140    -0.9040    -8.4510 h1         1 LZI       0.018200
     52 H212        -2.2220    -2.0950    -8.5250 h1         1 LZI       0.018200
     53 H201        -1.9660     0.9540   -10.9530 hc         1 LZI       0.028700
     54 H202        -3.3090    -0.0650   -11.5080 hc         1 LZI       0.028700
     55 H23         -5.5670     1.8310   -10.0390 hn         1 LZI       0.171500
     56 H371        -7.5130    -0.2080    -9.5610 h1         1 LZI       0.025700
     57 H372        -7.1800    -0.0090   -11.2830 h1         1 LZI       0.025700
     58 H17         -2.3200    -1.9560   -10.7700 h1         1 LZI       0.061700
     59 H13         -0.2870    -0.2160   -11.5370 hn         1 LZI       0.180500
     60 H14          1.6970     0.1360   -12.0970 ha         1 LZI       0.122000
     61 H22          4.2300    -0.3110   -12.6890 ha         1 LZI       0.137000
     62 H25         -8.4600     2.0890    -9.4150 hc         1 LZI       0.063700
     63 H271        -8.9850     1.0490   -12.2530 hc         1 LZI       0.048200
     64 H272       -10.0080     2.2710   -11.2590 hc         1 LZI       0.048200
     65 H261        -8.0890     3.7650   -11.1190 hc         1 LZI       0.048200
     66 H262        -7.0660     2.5430   -12.1130 hc         1 LZI       0.048200
@<TRIPOS>BOND
     1     1     2 2   
     2     2     3 1   
     3     2     7 1   
     4     3     4 2   
     5     3    40 1   
     6     4     5 1   
     7     4    41 1   
     8     5     6 2   
     9     5    42 1   
    10     6     7 1   
    11     6    43 1   
    12     7     8 1   
    13     8     9 ar  
    14     8    12 ar  
    15     9    10 ar  
    16     9    44 1   
    17    10    11 1   
    18    10    14 ar  
    19    12    13 ar  
    20    12    45 1   
    21    13    14 ar  
    22    13    46 1   
    23    14    15 1   
    24    15    16 1   
    25    15    47 1   
    26    16    17 2   
    27    16    18 1   
    28    18    19 1   
    29    18    48 1   
    30    18    49 1   
    31    19    20 1   
    32    19    24 1   
    33    20    21 1   
    34    20    26 1   
    35    20    50 1   
    36    21    22 1   
    37    21    23 2   
    38    22    36 1   
    39    22    55 1   
    40    24    25 1   
    41    24    51 1   
    42    24    52 1   
    43    25    26 1   
    44    25    27 1   
    45    25    58 1   
    46    26    53 1   
    47    26    54 1   
    48    27    28 1   
    49    27    59 1   
    50    28    29 2   
    51    28    30 1   
    52    30    31 2   
    53    30    34 1   
    54    31    32 1   
    55    31    60 1   
    56    32    33 2   
    57    32    61 1   
    58    33    34 1   
    59    33    35 1   
    60    36    37 1   
    61    36    56 1   
    62    36    57 1   
    63    37    38 1   
    64    37    39 1   
    65    37    62 1   
    66    38    39 1   
    67    38    63 1   
    68    38    64 1   
    69    39    65 1   
    70    39    66 1   
@<TRIPOS>SUBSTRUCTURE
     1 LZI         1 TEMP              0 ****  ****    0 ROOT
