@<TRIPOS>MOLECULE
molecule
   66    70     1     0     0
SMALL
bcc


@<TRIPOS>ATOM
      1 O30          0.0000     0.0000     0.0000 o          1 LZI      -0.630500
      2 C7           1.2590     0.0000     0.0000 c          1 LZI       0.687700
      3 C28          2.0840     0.0000     1.1760 cc         1 LZI      -0.249200
      4 C36          3.4440     0.0140     1.0850 cd         1 LZI      -0.040000
      5 C35          4.0770     0.0070    -0.1950 cd         1 LZI      -0.252000
      6 C24          3.3270     0.0280    -1.3260 cc         1 LZI       0.031600
      7 N2           1.9170     0.0080    -1.2660 n          1 LZI      -0.290200
      8 C8           1.1130     0.0290    -2.4770 ca         1 LZI       0.042600
      9 C11          0.9720     1.2630    -3.1000 ca         1 LZI      -0.149000
     10 C19          0.1900     1.3130    -4.2290 ca         1 LZI       0.101900
     11 F39          0.0590     2.5170    -4.8560 f          1 LZI      -0.150900
     12 C31          0.4950    -1.1240    -2.9540 ca         1 LZI      -0.098000
     13 C34         -0.2790    -1.0580    -4.1220 ca         1 LZI      -0.086000
     14 C18         -0.4290     0.1790    -4.7510 ca         1 LZI       0.035600
     15 N15         -1.2400     0.2680    -5.9330 ns         1 LZI      -0.493100
     16 C12         -2.5200    -0.3480    -5.8980 c          1 LZI       0.655100
     17 O33         -2.8960    -0.8540    -4.8350 o          1 LZI      -0.576100
     18 C16         -3.4130    -0.3960    -7.0980 c3         1 LZI       0.164800
     19 N1          -2.7420    -0.2140    -8.4000 n3         1 LZI      -0.824600
     20 C5          -3.4280     0.5330    -9.4810 c3         1 LZI       0.160500
     21 C10         -4.7940    -0.0270    -9.6820 c          1 LZI       0.627100
     22 N23         -5.7970     0.8570   -10.0110 ns         1 LZI      -0.584900
     23 O32         -5.0060    -1.2390    -9.5350 o          1 LZI      -0.595100
     24 C21         -1.9000    -1.1120    -8.8470 c3         1 LZI       0.223800
     25 C17         -1.8480    -1.0740   -10.3520 c3         1 LZI       0.113700
     26 C20         -2.6380     0.1480   -10.6850 c3         1 LZI      -0.105400
     27 N13         -0.4910    -0.9200   -10.8550 ns         1 LZI      -0.564900
     28 C6           0.3560    -1.9720   -10.6900 c          1 LZI       0.685700
     29 O29         -0.0590    -2.9890   -10.1220 o          1 LZI      -0.607100
     30 C3           1.6910    -1.8300   -11.1860 cc         1 LZI      -0.166700
     31 C14          2.2380    -0.7660   -11.8390 cd         1 LZI      -0.096000
     32 C22          3.5810    -1.0080   -12.1720 cd         1 LZI      -0.142000
     33 C9           3.9610    -2.2370   -11.6980 cc         1 LZI       0.005300
     34 S4           2.7560    -3.1600   -10.9250 ss         1 LZI       0.107200
     35 Cl3          5.5400    -2.9420   -11.7390 cl         1 LZI      -0.065400
     36 C37         -7.1580     0.4820   -10.3170 c3         1 LZI       0.144000
     37 C25         -8.0860     1.7020   -10.3540 cx         1 LZI      -0.163700
     38 C27         -9.0510     1.8260   -11.5000 cx         1 LZI      -0.130900
     39 C26         -7.8680     2.7460   -11.4140 cx         1 LZI      -0.130900
     40 H28          1.6160     0.0060     2.1540 ha         1 LZI       0.161000
     41 H36          4.0460     0.0060     1.9850 ha         1 LZI       0.137000
     42 H35          5.1580     0.0210    -0.2630 ha         1 LZI       0.148000
     43 H24          3.8190     0.0280    -2.2910 h4         1 LZI       0.157000
     44 H11          1.2020     2.1720    -2.5590 ha         1 LZI       0.166000
     45 H31          0.6310    -2.0680    -2.4410 ha         1 LZI       0.154000
     46 H34         -0.7630    -1.9430    -4.5170 ha         1 LZI       0.167000
     47 H15         -1.0340     0.9570    -6.6300 hn         1 LZI       0.337500
     48 H161        -4.1630     0.3780    -6.9930 h1         1 LZI       0.080700
     49 H162        -3.9140    -1.3570    -7.1080 h1         1 LZI       0.080700
     50 H5          -3.4270     1.6030    -9.3120 h1         1 LZI       0.073700
     51 H211        -0.9140    -0.9040    -8.4510 h1         1 LZI       0.043200
     52 H212        -2.2220    -2.0950    -8.5250 h1         1 LZI       0.043200
     53 H201        -1.9660     0.9540   -10.9530 hc         1 LZI       0.059700
     54 H202        -3.3090    -0.0650   -11.5080 hc         1 LZI       0.059700
     55 H23         -5.5670     1.8310   -10.0390 hn         1 LZI       0.309500
     56 H371        -7.5130    -0.2080    -9.5610 h1         1 LZI       0.054200
     57 H372        -7.1800    -0.0090   -11.2830 h1         1 LZI       0.054200
     58 H17         -2.3200    -1.9560   -10.7700 h1         1 LZI       0.085700
     59 H13         -0.2870    -0.2160   -11.5370 hn         1 LZI       0.316500
     60 H14          1.6970     0.1360   -12.0970 ha         1 LZI       0.152000
     61 H22          4.2300    -0.3110   -12.6890 ha         1 LZI       0.169000
     62 H25         -8.4600     2.0890    -9.4150 hc         1 LZI       0.086700
     63 H271        -8.9850     1.0490   -12.2530 hc         1 LZI       0.077450
     64 H272       -10.0080     2.2710   -11.2590 hc         1 LZI       0.077450
     65 H261        -8.0890     3.7650   -11.1190 hc         1 LZI       0.077450
     66 H262        -7.0660     2.5430   -12.1130 hc         1 LZI       0.077450
@<TRIPOS>BOND
     1     1     2 2
     2     2     3 1
     3     2     7 1
     4     3     4 2
     5     4     5 1
     6     5     6 2
     7     6     7 1
     8     7     8 1
     9     8     9 ar
    10     8    12 ar
    11     9    10 ar
    12    10    11 1
    13    10    14 ar
    14    12    13 ar
    15    13    14 ar
    16    14    15 1
    17    15    16 1
    18    16    17 2
    19    16    18 1
    20    18    19 1
    21    19    20 1
    22    19    24 1
    23    20    21 1
    24    20    26 1
    25    21    22 1
    26    21    23 2
    27    22    36 1
    28    24    25 1
    29    25    26 1
    30    25    27 1
    31    27    28 1
    32    28    29 2
    33    28    30 1
    34    30    31 2
    35    30    34 1
    36    31    32 1
    37    32    33 2
    38    33    34 1
    39    33    35 1
    40    36    37 1
    41    37    38 1
    42    37    39 1
    43    38    39 1
    44     3    40 1
    45     4    41 1
    46     5    42 1
    47     6    43 1
    48     9    44 1
    49    12    45 1
    50    13    46 1
    51    15    47 1
    52    18    48 1
    53    18    49 1
    54    20    50 1
    55    24    51 1
    56    24    52 1
    57    26    53 1
    58    26    54 1
    59    22    55 1
    60    36    56 1
    61    36    57 1
    62    25    58 1
    63    27    59 1
    64    31    60 1
    65    32    61 1
    66    37    62 1
    67    38    63 1
    68    38    64 1
    69    39    65 1
    70    39    66 1
@<TRIPOS>SUBSTRUCTURE
     1 LZI         1 TEMP              0 ****  ****    0 ROOT
