@<TRIPOS>MOLECULE
molecule
   29    31     1     0     0
SMALL
bcc


@<TRIPOS>ATOM
      1 Br2          0.0000     0.0000     0.0000 br         1 LZJ      -0.069600
      2 C18          1.8880     0.0000     0.0000 ca         1 LZJ      -0.019400
      3 C17          2.5380     0.0000     1.2320 ca         1 LZJ      -0.096500
      4 C16          3.9260     0.0050     1.2930 ca         1 LZJ      -0.126000
      5 C15          4.6620     0.0090     0.1140 ca         1 LZJ      -0.096500
      6 C14          4.0120     0.0070    -1.1190 ca         1 LZJ      -0.019400
      7 Br1          5.0700     0.0190    -2.6800 br         1 LZJ      -0.069600
      8 C12          2.6190     0.0090    -1.1890 cp         1 LZJ       0.018000
      9 C9           1.9330    -0.0100    -2.5190 cp         1 LZJ      -0.267300
     10 C10          1.9180     1.1080    -3.3580 ca         1 LZJ       0.036000
     11 C5           1.2690     1.0200    -4.5940 ca         1 LZJ      -0.432600
     12 C6           1.2190     2.1010    -5.4740 ca         1 LZJ       0.544200
     13 N1           0.5800     1.9760    -6.6510 nb         1 LZJ      -0.812000
     14 C8           1.3040    -1.1860    -2.9440 ca         1 LZJ       0.761200
     15 N13          1.2990    -2.2970    -2.1700 nv         1 LZJ      -0.974500
     16 N7           0.6800    -1.2450    -4.1460 nb         1 LZJ      -0.778000
     17 C4           0.6510    -0.1720    -4.9700 ca         1 LZJ       0.797300
     18 N3           0.0200    -0.2570    -6.1640 nb         1 LZJ      -0.812000
     19 C2          -0.0150     0.8060    -7.0020 ca         1 LZJ       0.956900
     20 N11         -0.6590     0.6930    -8.1900 nv         1 LZJ      -0.962500
     21 H17          1.9590    -0.0030     2.1480 ha         1 LZJ       0.151000
     22 H16          4.4300     0.0060     2.2520 ha         1 LZJ       0.146000
     23 H15          5.7450     0.0130     0.1540 ha         1 LZJ       0.151000
     24 H10          2.2380     2.0720    -2.9820 ha         1 LZJ       0.143000
     25 H6           1.6880     3.0410    -5.2070 h4         1 LZJ       0.027100
     26 H131         0.6840    -3.0560    -2.3880 hn         1 LZJ       0.447800
     27 H132         1.9520    -2.3840    -1.4160 hn         1 LZJ       0.447800
     28 H111        -1.0960    -0.1720    -8.4420 hn         1 LZJ       0.454800
     29 H112        -0.6920     1.4720    -8.8170 hn         1 LZJ       0.454800
@<TRIPOS>BOND
     1     1     2 1
     2     2     3 ar
     3     2     8 ar
     4     3     4 ar
     5     4     5 ar
     6     5     6 ar
     7     6     7 1
     8     6     8 ar
     9     8     9 1
    10     9    10 ar
    11     9    14 ar
    12    10    11 ar
    13    11    12 ar
    14    11    17 ar
    15    12    13 ar
    16    13    19 ar
    17    14    15 1
    18    14    16 ar
    19    16    17 ar
    20    17    18 ar
    21    18    19 ar
    22    19    20 1
    23     3    21 1
    24     4    22 1
    25     5    23 1
    26    10    24 1
    27    12    25 1
    28    15    26 1
    29    15    27 1
    30    20    28 1
    31    20    29 1
@<TRIPOS>SUBSTRUCTURE
     1 LZJ         1 TEMP              0 ****  ****    0 ROOT
