@<TRIPOS>MOLECULE
molecule
   37    39     1     0     0
SMALL
bcc


@<TRIPOS>ATOM
      1 N20          0.0000     0.0000     0.0000 nv         1 LZK      -1.050500
      2 C19          1.3540     0.0000     0.0000 ca         1 LZK       0.944900
      3 N17          2.0040     0.0000     1.1840 nb         1 LZK      -0.742000
      4 N18          2.0480     0.0060    -1.1700 nb         1 LZK      -0.775000
      5 C16          3.3930     0.0140    -1.1770 ca         1 LZK       0.504200
      6 C11          4.0800     0.0140     0.0360 ca         1 LZK      -0.389600
      7 C15          3.3520     0.0090     1.2260 ca         1 LZK       0.756300
      8 N12          3.9860     0.0120     2.4210 nb         1 LZK      -0.775000
      9 C6           5.3370     0.0160     2.4980 ca         1 LZK       0.754200
     10 N13          5.9120     0.0160     3.7260 nv         1 LZK      -0.973500
     11 C5           5.4700     0.0270     0.0850 ca         1 LZK       0.005000
     12 C2           6.1040     0.0290     1.3310 cp         1 LZK      -0.196300
     13 C1           7.5940     0.0250     1.4030 cp         1 LZK      -0.104000
     14 C4           8.2790     1.0910     1.9860 ca         1 LZK       0.185600
     15 O1           7.5660     2.1560     2.4820 os         1 LZK      -0.344400
     16 C45          8.0830     3.0050     3.5020 c3         1 LZK       0.144200
     17 C3           8.2940    -1.0650     0.8850 ca         1 LZK       0.185600
     18 O7           7.5920    -2.1070     0.3170 os         1 LZK      -0.344400
     19 C43          8.2060    -3.1390    -0.4590 c3         1 LZK       0.144200
     20 C7           9.6920    -1.0780     0.9480 ca         1 LZK      -0.243000
     21 C14         10.3790    -0.0110     1.5290 ca         1 LZK      -0.057000
     22 C9           9.6760     1.0750     2.0480 ca         1 LZK      -0.243000
     23 H201        -0.5000    -0.8670     0.0010 hn         1 LZK       0.446800
     24 H202        -0.5000     0.8670     0.0050 hn         1 LZK       0.446800
     25 H16          3.9360     0.0190    -2.1140 h4         1 LZK       0.024100
     26 H5           6.0520     0.0370    -0.8280 ha         1 LZK       0.142000
     27 H131         5.3440     0.1120     4.5440 hn         1 LZK       0.445300
     28 H132         6.8960    -0.1410     3.8170 hn         1 LZK       0.445300
     29 H9          10.2100     1.9030     2.5000 ha         1 LZK       0.139000
     30 H451         8.8460     3.6490     3.0830 h1         1 LZK       0.041033
     31 H452         7.2820     3.6110     3.9080 h1         1 LZK       0.041033
     32 H453         8.5140     2.4000     4.2910 h1         1 LZK       0.041033
     33 H7          10.2430    -1.9200     0.5470 ha         1 LZK       0.139000
     34 H431         8.8070    -2.6930    -1.2420 h1         1 LZK       0.041033
     35 H432         8.8380    -3.7440     0.1810 h1         1 LZK       0.041033
     36 H433         7.4390    -3.7620    -0.9020 h1         1 LZK       0.041033
     37 H14         11.4610    -0.0260     1.5750 ha         1 LZK       0.136000
@<TRIPOS>BOND
     1     1     2 1
     2     2     3 ar
     3     2     4 ar
     4     3     7 ar
     5     4     5 ar
     6     5     6 ar
     7     6     7 ar
     8     6    11 ar
     9     7     8 ar
    10     8     9 ar
    11     9    10 1
    12     9    12 ar
    13    11    12 ar
    14    12    13 1
    15    13    14 ar
    16    13    17 ar
    17    14    15 1
    18    14    22 ar
    19    15    16 1
    20    17    18 1
    21    17    20 ar
    22    18    19 1
    23    20    21 ar
    24    21    22 ar
    25     1    23 1
    26     1    24 1
    27     5    25 1
    28    11    26 1
    29    10    27 1
    30    10    28 1
    31    22    29 1
    32    16    30 1
    33    16    31 1
    34    16    32 1
    35    20    33 1
    36    19    34 1
    37    19    35 1
    38    19    36 1
    39    21    37 1
@<TRIPOS>SUBSTRUCTURE
     1 LZK         1 TEMP              0 ****  ****    0 ROOT
