@<TRIPOS>MOLECULE
LZL
   37    40     1     0     0
SMALL
bcc


@<TRIPOS>ATOM
      1 N22          0.0000     0.0000     0.0000 nv         1 LZL      -0.624500
      2 C21          1.3530     0.0000     0.0000 ca         1 LZL       0.734900
      3 N20          2.0280     0.0000     1.1830 nb         1 LZL      -0.669000
      4 C15          3.3710    -0.0020     1.2510 ca         1 LZL       0.492200
      5 C9           4.0990    -0.0060     0.0680 ca         1 LZL      -0.357600
      6 C4           5.4880    -0.0140     0.0470 ca         1 LZL      -0.009000
      7 N18          2.0020     0.0010    -1.1880 nb         1 LZL      -0.625000
      8 C12          3.3500    -0.0030    -1.2180 ca         1 LZL       0.649300
      9 N6           4.0110    -0.0050    -2.3920 nb         1 LZL      -0.626000
     10 C2           5.3640    -0.0080    -2.4590 ca         1 LZL       0.590200
     11 N5           5.9280     0.0030    -3.7580 nh         1 LZL      -0.506300
     12 C11          6.8700     0.8630    -4.3850 c3         1 LZL       0.204500
     13 C17          7.0570     0.3340    -5.6490 c2         1 LZL      -0.151700
     14 C16          5.8560    -0.2360    -5.9310 c2         1 LZL      -0.151700
     15 C10          5.4930    -0.9120    -4.7670 c3         1 LZL       0.204500
     16 C1           6.1520    -0.0080    -1.1790 cp         1 LZL      -0.168300
     17 C3           7.6350    -0.0370    -1.1680 cp         1 LZL      -0.041000
     18 C8           8.3900     1.0530    -0.7370 ca         1 LZL      -0.088000
     19 C14          9.7820     0.9690    -0.7440 ca         1 LZL      -0.100000
     20 C19         10.4060    -0.2030    -1.1720 ca         1 LZL      -0.098000
     21 C13          9.6530    -1.2960    -1.5940 ca         1 LZL      -0.100000
     22 C7           8.2620    -1.2140    -1.5870 ca         1 LZL      -0.088000
     23 H221        -0.5000     0.8670    -0.0040 hn         1 LZL       0.281800
     24 H222        -0.5000    -0.8670    -0.0050 hn         1 LZL       0.281800
     25 H15          3.8760    -0.0020     2.2100 h4         1 LZL      -0.016900
     26 H4           6.0490    -0.0140     0.9740 ha         1 LZL       0.116000
     27 H111         7.8030     0.8590    -3.8360 h1         1 LZL       0.027200
     28 H112         6.4710     1.8670    -4.4550 h1         1 LZL       0.027200
     29 H101         6.0210    -1.8550    -4.6870 h1         1 LZL       0.027200
     30 H102         4.4200    -1.0550    -4.7220 h1         1 LZL       0.027200
     31 H17          7.6610     0.8790    -6.3640 ha         1 LZL       0.110500
     32 H16          5.6770    -0.7120    -6.8870 ha         1 LZL       0.110500
     33 H8           7.9000     1.9600    -0.4060 ha         1 LZL       0.109500
     34 H7           7.6680    -2.0580    -1.9130 ha         1 LZL       0.109500
     35 H14         10.3780     1.8110    -0.4140 ha         1 LZL       0.105500
     36 H19         11.4880    -0.2630    -1.1760 ha         1 LZL       0.103000
     37 H13         10.1450    -2.2040    -1.9220 ha         1 LZL       0.105500
@<TRIPOS>BOND
     1     1     2 1   
     2     1    23 1   
     3     1    24 1   
     4     2     3 ar  
     5     2     7 ar  
     6     3     4 ar  
     7     4     5 ar  
     8     4    25 1   
     9     5     6 ar  
    10     5     8 ar  
    11     6    16 ar  
    12     6    26 1   
    13     7     8 ar  
    14     8     9 ar  
    15     9    10 ar  
    16    10    11 1   
    17    10    16 ar  
    18    11    12 1   
    19    11    15 1   
    20    12    13 1   
    21    12    27 1   
    22    12    28 1   
    23    13    14 2   
    24    13    31 1   
    25    14    15 1   
    26    14    32 1   
    27    15    29 1   
    28    15    30 1   
    29    16    17 1   
    30    17    18 ar  
    31    17    22 ar  
    32    18    19 ar  
    33    18    33 1   
    34    19    20 ar  
    35    19    35 1   
    36    20    21 ar  
    37    20    36 1   
    38    21    22 ar  
    39    21    37 1   
    40    22    34 1   
@<TRIPOS>SUBSTRUCTURE
     1 LZL         1 TEMP              0 ****  ****    0 ROOT
