@<TRIPOS>MOLECULE
molecule
   37    40     1     0     0
SMALL
bcc


@<TRIPOS>ATOM
      1 N22          0.0000     0.0000     0.0000 nv         1 LZL      -1.050500
      2 C21          1.3530     0.0000     0.0000 ca         1 LZL       0.948900
      3 N20          2.0280     0.0000     1.1830 nb         1 LZL      -0.771000
      4 C15          3.3710    -0.0020     1.2510 ca         1 LZL       0.504200
      5 C9           4.0990    -0.0060     0.0680 ca         1 LZL      -0.375600
      6 C4           5.4880    -0.0140     0.0470 ca         1 LZL      -0.032000
      7 N18          2.0020     0.0010    -1.1880 nb         1 LZL      -0.727000
      8 C12          3.3500    -0.0030    -1.2180 ca         1 LZL       0.735300
      9 N6           4.0110    -0.0050    -2.3920 nb         1 LZL      -0.726000
     10 C2           5.3640    -0.0080    -2.4590 ca         1 LZL       0.761200
     11 N5           5.9280     0.0030    -3.7580 nh         1 LZL      -0.846300
     12 C11          6.8700     0.8630    -4.3850 c3         1 LZL       0.259500
     13 C17          7.0570     0.3340    -5.6490 c2         1 LZL      -0.171200
     14 C16          5.8560    -0.2360    -5.9310 c2         1 LZL      -0.171200
     15 C10          5.4930    -0.9120    -4.7670 c3         1 LZL       0.259500
     16 C1           6.1520    -0.0080    -1.1790 cp         1 LZL      -0.184300
     17 C3           7.6350    -0.0370    -1.1680 cp         1 LZL      -0.043000
     18 C8           8.3900     1.0530    -0.7370 ca         1 LZL      -0.111500
     19 C14          9.7820     0.9690    -0.7440 ca         1 LZL      -0.130500
     20 C19         10.4060    -0.2030    -1.1720 ca         1 LZL      -0.126000
     21 C13          9.6530    -1.2960    -1.5940 ca         1 LZL      -0.130500
     22 C7           8.2620    -1.2140    -1.5870 ca         1 LZL      -0.111500
     23 H221        -0.5000     0.8670    -0.0040 hn         1 LZL       0.448800
     24 H222        -0.5000    -0.8670    -0.0050 hn         1 LZL       0.448800
     25 H15          3.8760    -0.0020     2.2100 h4         1 LZL       0.029100
     26 H4           6.0490    -0.0140     0.9740 ha         1 LZL       0.146000
     27 H111         7.8030     0.8590    -3.8360 h1         1 LZL       0.055450
     28 H112         6.4710     1.8670    -4.4550 h1         1 LZL       0.055450
     29 H101         6.0210    -1.8550    -4.6870 h1         1 LZL       0.055450
     30 H102         4.4200    -1.0550    -4.7220 h1         1 LZL       0.055450
     31 H17          7.6610     0.8790    -6.3640 ha         1 LZL       0.137000
     32 H16          5.6770    -0.7120    -6.8870 ha         1 LZL       0.137000
     33 H8           7.9000     1.9600    -0.4060 ha         1 LZL       0.137000
     34 H7           7.6680    -2.0580    -1.9130 ha         1 LZL       0.137000
     35 H14         10.3780     1.8110    -0.4140 ha         1 LZL       0.133500
     36 H19         11.4880    -0.2630    -1.1760 ha         1 LZL       0.130000
     37 H13         10.1450    -2.2040    -1.9220 ha         1 LZL       0.133500
@<TRIPOS>BOND
     1     1     2 1
     2     2     3 ar
     3     2     7 ar
     4     3     4 ar
     5     4     5 ar
     6     5     6 ar
     7     5     8 ar
     8     6    16 ar
     9     7     8 ar
    10     8     9 ar
    11     9    10 ar
    12    10    11 1
    13    10    16 ar
    14    11    12 1
    15    11    15 1
    16    12    13 1
    17    13    14 2
    18    14    15 1
    19    16    17 1
    20    17    18 ar
    21    17    22 ar
    22    18    19 ar
    23    19    20 ar
    24    20    21 ar
    25    21    22 ar
    26     1    23 1
    27     1    24 1
    28     4    25 1
    29     6    26 1
    30    12    27 1
    31    12    28 1
    32    15    29 1
    33    15    30 1
    34    13    31 1
    35    14    32 1
    36    18    33 1
    37    22    34 1
    38    19    35 1
    39    20    36 1
    40    21    37 1
@<TRIPOS>SUBSTRUCTURE
     1 LZL         1 TEMP              0 ****  ****    0 ROOT
