@<TRIPOS>MOLECULE
molecule
   15    16     1     0     0
SMALL
bcc


@<TRIPOS>ATOM
      1 N1          -1.5210     0.0100    -2.0600 n1         1 LZM      -0.369800
      2 C2          -0.8420    -0.0050    -1.1440 cg         1 LZM       0.245500
      3 C3           0.0000     0.0000     0.0000 cc         1 LZM      -0.197300
      4 C4           1.3690     0.0000     0.0000 cc         1 LZM       0.443500
      5 N5           1.8630     0.0000     1.2340 nd         1 LZM      -0.588100
      6 N6           0.7720    -0.0050     2.0400 na         1 LZM       0.096200
      7 C7           0.7450     0.0120     3.3760 cc         1 LZM       0.015700
      8 C8          -0.4680     0.0120     4.0210 cd         1 LZM      -0.327300
      9 C9          -1.6270     0.0040     3.2730 cd         1 LZM       0.428200
     10 N10         -1.6180     0.0020     1.9350 nd         1 LZM      -0.633000
     11 C11         -0.4110    -0.0040     1.3350 cd         1 LZM       0.417500
     12 H4           2.1070     0.3170    -0.7270 h4         1 LZM       0.066800
     13 H7           1.5600    -0.1490     4.0710 h4         1 LZM       0.190000
     14 H8          -0.8380     0.2020     5.0210 ha         1 LZM       0.175000
     15 H9          -2.5750     0.1160     3.7860 h4         1 LZM       0.037100
@<TRIPOS>BOND
     1     1     2 3
     2     2     3 1
     3     3     4 1
     4     3    11 2
     5     4     5 2
     6     5     6 1
     7     6     7 1
     8     6    11 1
     9     7     8 2
    10     8     9 1
    11     9    10 2
    12    10    11 1
    13     4    12 1
    14     7    13 1
    15     8    14 1
    16     9    15 1
@<TRIPOS>SUBSTRUCTURE
     1 LZM         1 TEMP              0 ****  ****    0 ROOT
