@<TRIPOS>MOLECULE
LZM
   15    16     1     0     0
SMALL
bcc


@<TRIPOS>ATOM
      1 N1          -1.5210     0.0100    -2.0600 n1         1 LZM      -0.391800
      2 C2          -0.8420    -0.0050    -1.1440 cg         1 LZM       0.244500
      3 C3           0.0000     0.0000     0.0000 cc         1 LZM      -0.169300
      4 C4           1.3690     0.0000     0.0000 cc         1 LZM       0.504500
      5 N5           1.8630     0.0000     1.2340 nd         1 LZM      -0.778100
      6 N6           0.7720    -0.0050     2.0400 na         1 LZM       0.645200
      7 C7           0.7450     0.0120     3.3760 cc         1 LZM      -0.181300
      8 C8          -0.4680     0.0120     4.0210 cd         1 LZM      -0.249300
      9 C9          -1.6270     0.0040     3.2730 cd         1 LZM       0.382200
     10 N10         -1.6180     0.0020     1.9350 nd         1 LZM      -0.508000
     11 C11         -0.4110    -0.0040     1.3350 cd         1 LZM       0.184500
     12 H4           2.1070     0.3170    -0.7270 h4         1 LZM       0.019800
     13 H7           1.5600    -0.1490     4.0710 h4         1 LZM       0.159000
     14 H8          -0.8380     0.2020     5.0210 ha         1 LZM       0.146000
     15 H9          -2.5750     0.1160     3.7860 h4         1 LZM      -0.007900
@<TRIPOS>BOND
     1     1     2 3   
     2     2     3 1   
     3     3     4 1   
     4     3    11 2   
     5     4     5 2   
     6     4    12 1   
     7     5     6 1   
     8     6     7 1   
     9     6    11 1   
    10     7     8 2   
    11     7    13 1   
    12     8     9 1   
    13     8    14 1   
    14     9    10 2   
    15     9    15 1   
    16    10    11 1   
@<TRIPOS>SUBSTRUCTURE
     1 LZM         1 TEMP              0 ****  ****    0 ROOT
