@<TRIPOS>MOLECULE
molecule
   82    86     1     0     0
SMALL
bcc


@<TRIPOS>ATOM
      1 C1           0.0000     0.0000     0.0000 ca         1 LZP      -0.131000
      2 C2           1.3820     0.0000     0.0000 ca         1 LZP      -0.115000
      3 C3           2.0740     0.0000     1.1970 ca         1 LZP      -0.131000
      4 C4           1.3820     0.0010     2.3950 ca         1 LZP      -0.102000
      5 C5          -0.0000     0.0010     2.3950 ca         1 LZP      -0.098300
      6 C6          -0.6910     0.0000     1.1970 ca         1 LZP      -0.102000
      7 C7          -0.7530     0.0010     3.7000 c3         1 LZP       0.187700
      8 C8          -1.6650     1.5260     5.2790 ca         1 LZP       0.132100
      9 C9          -2.0880     0.4240     6.0110 ca         1 LZP      -0.198000
     10 C10         -2.7690     0.5970     7.2030 ca         1 LZP      -0.101000
     11 C11         -3.0330     1.8660     7.6730 ca         1 LZP      -0.136000
     12 C12         -2.6120     2.9830     6.9450 ca         1 LZP      -0.142600
     13 C13         -1.9240     2.8050     5.7410 ca         1 LZP      -0.097000
     14 C14         -2.8920     4.3400     7.4420 c          1 LZP       0.568200
     15 C15         -3.6350     4.5270     8.7390 c3         1 LZP      -0.261400
     16 C16         -3.7910     6.0000     9.0210 c          1 LZP       0.504100
     17 C17         -4.4960     6.4520    10.2530 c          1 LZP       0.569100
     18 C18         -3.8900     8.7590     9.6990 c3         1 LZP       0.055250
     19 C19         -2.8420     9.5500    10.4920 c3         1 LZP       0.055250
     20 C20         -4.0530     8.9970    12.6430 c3         1 LZP       0.055250
     21 C21         -5.1010     8.2070    11.8510 c3         1 LZP       0.055250
     22 N1          -4.4960     7.7580    10.5890 n          1 LZP      -0.463300
     23 N2          -3.4470     9.9970    11.7540 n          1 LZP      -0.463300
     24 O1          -0.9910     1.3480     4.1130 os         1 LZP      -0.319900
     25 O2          -2.5250     5.3060     6.8080 o          1 LZP      -0.483100
     26 O3          -3.3440     6.8130     8.2470 o          1 LZP      -0.457100
     27 O4          -5.0710     5.6460    10.9550 o          1 LZP      -0.599100
     28 C22         -3.4460    11.3030    12.0890 c          1 LZP       0.569100
     29 C23         -2.9200    12.3180    11.1330 c          1 LZP       0.504100
     30 C24         -3.0840    13.7870    11.4270 c3         1 LZP      -0.261400
     31 C25         -2.4700    14.5940    10.3130 c          1 LZP       0.568200
     32 C26         -1.9330    16.8170     9.3340 ca         1 LZP      -0.097000
     33 C27         -2.5010    16.0650    10.3660 ca         1 LZP      -0.142600
     34 C28         -3.0990    16.7160    11.4500 ca         1 LZP      -0.136000
     35 C29         -3.1260    18.0940    11.4960 ca         1 LZP      -0.101000
     36 C30         -2.5630    18.8360    10.4720 ca         1 LZP      -0.198000
     37 C31         -1.9670    18.1990     9.3920 ca         1 LZP       0.132100
     38 C32         -1.4870    20.3570     8.5150 c3         1 LZP       0.187700
     39 C33         -1.5750    21.2910     6.1940 ca         1 LZP      -0.102000
     40 C34         -0.8290    20.9990     7.3210 ca         1 LZP      -0.098300
     41 C35          0.5210    21.2950     7.3520 ca         1 LZP      -0.102000
     42 C36          1.1250    21.8840     6.2570 ca         1 LZP      -0.131000
     43 C37          0.3790    22.1760     5.1300 ca         1 LZP      -0.115000
     44 C38         -0.9710    21.8780     5.0990 ca         1 LZP      -0.131000
     45 O5          -3.8740    11.6510    13.1700 o          1 LZP      -0.599100
     46 O6          -2.3630    11.9630    10.1220 o          1 LZP      -0.457100
     47 O7          -1.9510    14.0320     9.3720 o          1 LZP      -0.483100
     48 O8          -1.4160    18.9340     8.3910 os         1 LZP      -0.319900
     49 H1          -0.5420    -0.0000    -0.9380 ha         1 LZP       0.133000
     50 H2           1.9240    -0.0000    -0.9380 ha         1 LZP       0.131000
     51 H3           3.1570     0.0000     1.1980 ha         1 LZP       0.133000
     52 H4           1.9230     0.0010     3.3330 ha         1 LZP       0.133500
     53 H6          -1.7740    -0.0000     1.1970 ha         1 LZP       0.133500
     54 H7          -1.7000    -0.5090     3.5700 h1         1 LZP       0.040700
     55 H7A         -0.1680    -0.5100     4.4540 h1         1 LZP       0.040700
     56 H9          -1.8830    -0.5750     5.6470 ha         1 LZP       0.138000
     57 H10         -3.0960    -0.2670     7.7680 ha         1 LZP       0.135000
     58 H11         -3.5670     1.9980     8.6060 ha         1 LZP       0.134000
     59 H13         -1.5940     3.6650     5.1710 ha         1 LZP       0.169000
     60 H15         -3.0790     4.0630     9.5450 hc         1 LZP       0.103450
     61 H15A        -4.6140     4.0690     8.6650 hc         1 LZP       0.103450
     62 H18         -4.6570     9.4340     9.3380 h1         1 LZP       0.084200
     63 H18A        -3.4140     8.2610     8.8640 h1         1 LZP       0.084200
     64 H19         -1.9910     8.9130    10.7030 h1         1 LZP       0.084200
     65 H19A        -2.5250    10.4110     9.9160 h1         1 LZP       0.084200
     66 H20         -3.2860     8.3220    13.0050 h1         1 LZP       0.084200
     67 H20A        -4.5290     9.4960    13.4780 h1         1 LZP       0.084200
     68 H21         -5.4180     7.3460    12.4270 h1         1 LZP       0.084200
     69 H21A        -5.9520     8.8430    11.6390 h1         1 LZP       0.084200
     70 H24         -4.1380    14.0240    11.5070 hc         1 LZP       0.103450
     71 H24A        -2.5880    14.0250    12.3610 hc         1 LZP       0.103450
     72 H26         -1.4680    16.3200     8.4910 ha         1 LZP       0.169000
     73 H28         -3.5400    16.1380    12.2530 ha         1 LZP       0.134000
     74 H29         -3.5890    18.5980    12.3360 ha         1 LZP       0.135000
     75 H30         -2.5880    19.9180    10.5140 ha         1 LZP       0.138000
     76 H32         -2.5250    20.6630     8.5630 h1         1 LZP       0.040700
     77 H32A        -0.9760    20.6660     9.4180 h1         1 LZP       0.040700
     78 H35          1.1050    21.0670     8.2350 ha         1 LZP       0.133500
     79 H36          2.1820    22.1170     6.2820 ha         1 LZP       0.133000
     80 H37          0.8520    22.6370     4.2710 ha         1 LZP       0.131000
     81 H38         -1.5550    22.1070     4.2160 ha         1 LZP       0.133000
     82 H33         -2.6320    21.0580     6.1690 ha         1 LZP       0.133500
@<TRIPOS>BOND
     1     1     2 ar
     2     1     6 ar
     3     2     3 ar
     4     3     4 ar
     5     4     5 ar
     6     5     6 ar
     7     5     7 1
     8     7    24 1
     9     8     9 ar
    10     8    13 ar
    11     8    24 1
    12     9    10 ar
    13    10    11 ar
    14    11    12 ar
    15    12    13 ar
    16    12    14 1
    17    14    15 1
    18    14    25 2
    19    15    16 1
    20    16    17 1
    21    16    26 2
    22    17    22 1
    23    17    27 2
    24    18    19 1
    25    18    22 1
    26    19    23 1
    27    20    21 1
    28    20    23 1
    29    21    22 1
    30    23    28 1
    31    28    29 1
    32    28    45 2
    33    29    30 1
    34    29    46 2
    35    30    31 1
    36    31    33 1
    37    31    47 2
    38    32    33 ar
    39    32    37 ar
    40    33    34 ar
    41    34    35 ar
    42    35    36 ar
    43    36    37 ar
    44    37    48 1
    45    38    40 1
    46    38    48 1
    47    39    40 ar
    48    39    44 ar
    49    40    41 ar
    50    41    42 ar
    51    42    43 ar
    52    43    44 ar
    53     1    49 1
    54     2    50 1
    55     3    51 1
    56     4    52 1
    57     6    53 1
    58     7    54 1
    59     7    55 1
    60     9    56 1
    61    10    57 1
    62    11    58 1
    63    13    59 1
    64    15    60 1
    65    15    61 1
    66    18    62 1
    67    18    63 1
    68    19    64 1
    69    19    65 1
    70    20    66 1
    71    20    67 1
    72    21    68 1
    73    21    69 1
    74    30    70 1
    75    30    71 1
    76    32    72 1
    77    34    73 1
    78    35    74 1
    79    36    75 1
    80    38    76 1
    81    38    77 1
    82    39    82 1
    83    41    78 1
    84    42    79 1
    85    43    80 1
    86    44    81 1
@<TRIPOS>SUBSTRUCTURE
     1 LZP         1 TEMP              0 ****  ****    0 ROOT
