@<TRIPOS>MOLECULE
LZP
   82    86     1     0     0
SMALL
bcc


@<TRIPOS>ATOM
      1 C1           0.0000     0.0000     0.0000 ca         1 LZP      -0.104000
      2 C2           1.3820     0.0000     0.0000 ca         1 LZP      -0.089000
      3 C3           2.0740     0.0000     1.1970 ca         1 LZP      -0.104000
      4 C4           1.3820     0.0010     2.3950 ca         1 LZP      -0.074000
      5 C5          -0.0000     0.0010     2.3950 ca         1 LZP      -0.115300
      6 C6          -0.6910     0.0000     1.1970 ca         1 LZP      -0.074000
      7 C7          -0.7530     0.0010     3.7000 c3         1 LZP       0.263700
      8 C8          -1.6650     1.5260     5.2790 ca         1 LZP       0.139600
      9 C9          -2.0880     0.4240     6.0110 ca         1 LZP      -0.187000
     10 C10         -2.7690     0.5970     7.2030 ca         1 LZP      -0.067000
     11 C11         -3.0330     1.8660     7.6730 ca         1 LZP      -0.116000
     12 C12         -2.6120     2.9830     6.9450 ca         1 LZP      -0.148600
     13 C13         -1.9240     2.8050     5.7410 ca         1 LZP      -0.076000
     14 C14         -2.8920     4.3400     7.4420 c          1 LZP       0.610200
     15 C15         -3.6350     4.5270     8.7390 c3         1 LZP      -0.201900
     16 C16         -3.7910     6.0000     9.0210 c          1 LZP       0.545600
     17 C17         -4.4960     6.4520    10.2530 c          1 LZP       0.492100
     18 C18         -3.8900     8.7590     9.6990 c3         1 LZP      -0.020750
     19 C19         -2.8420     9.5500    10.4920 c3         1 LZP      -0.020750
     20 C20         -4.0530     8.9970    12.6430 c3         1 LZP      -0.020750
     21 C21         -5.1010     8.2070    11.8510 c3         1 LZP      -0.020750
     22 N1          -4.4960     7.7580    10.5890 n          1 LZP      -0.109300
     23 N2          -3.4470     9.9970    11.7540 n          1 LZP      -0.109300
     24 O1          -0.9910     1.3480     4.1130 os         1 LZP      -0.296900
     25 O2          -2.5250     5.3060     6.8080 o          1 LZP      -0.515100
     26 O3          -3.3440     6.8130     8.2470 o          1 LZP      -0.483100
     27 O4          -5.0710     5.6460    10.9550 o          1 LZP      -0.640100
     28 C22         -3.4460    11.3030    12.0890 c          1 LZP       0.492100
     29 C23         -2.9200    12.3180    11.1330 c          1 LZP       0.545600
     30 C24         -3.0840    13.7870    11.4270 c3         1 LZP      -0.201900
     31 C25         -2.4700    14.5940    10.3130 c          1 LZP       0.610200
     32 C26         -1.9330    16.8170     9.3340 ca         1 LZP      -0.076000
     33 C27         -2.5010    16.0650    10.3660 ca         1 LZP      -0.148600
     34 C28         -3.0990    16.7160    11.4500 ca         1 LZP      -0.116000
     35 C29         -3.1260    18.0940    11.4960 ca         1 LZP      -0.067000
     36 C30         -2.5630    18.8360    10.4720 ca         1 LZP      -0.187000
     37 C31         -1.9670    18.1990     9.3920 ca         1 LZP       0.139600
     38 C32         -1.4870    20.3570     8.5150 c3         1 LZP       0.263700
     39 C33         -1.5750    21.2910     6.1940 ca         1 LZP      -0.074000
     40 C34         -0.8290    20.9990     7.3210 ca         1 LZP      -0.115300
     41 C35          0.5210    21.2950     7.3520 ca         1 LZP      -0.074000
     42 C36          1.1250    21.8840     6.2570 ca         1 LZP      -0.104000
     43 C37          0.3790    22.1760     5.1300 ca         1 LZP      -0.089000
     44 C38         -0.9710    21.8780     5.0990 ca         1 LZP      -0.104000
     45 O5          -3.8740    11.6510    13.1700 o          1 LZP      -0.640100
     46 O6          -2.3630    11.9630    10.1220 o          1 LZP      -0.483100
     47 O7          -1.9510    14.0320     9.3720 o          1 LZP      -0.515100
     48 O8          -1.4160    18.9340     8.3910 os         1 LZP      -0.296900
     49 H1          -0.5420    -0.0000    -0.9380 ha         1 LZP       0.104000
     50 H2           1.9240    -0.0000    -0.9380 ha         1 LZP       0.102500
     51 H3           3.1570     0.0000     1.1980 ha         1 LZP       0.104000
     52 H4           1.9230     0.0010     3.3330 ha         1 LZP       0.106000
     53 H6          -1.7740    -0.0000     1.1970 ha         1 LZP       0.106000
     54 H7          -1.7000    -0.5090     3.5700 h1         1 LZP       0.003700
     55 H7A         -0.1680    -0.5100     4.4540 h1         1 LZP       0.003700
     56 H9          -1.8830    -0.5750     5.6470 ha         1 LZP       0.120500
     57 H10         -3.0960    -0.2670     7.7680 ha         1 LZP       0.105000
     58 H11         -3.5670     1.9980     8.6060 ha         1 LZP       0.111000
     59 H13         -1.5940     3.6650     5.1710 ha         1 LZP       0.138000
     60 H15         -3.0790     4.0630     9.5450 hc         1 LZP       0.068450
     61 H15A        -4.6140     4.0690     8.6650 hc         1 LZP       0.068450
     62 H18         -4.6570     9.4340     9.3380 h1         1 LZP       0.062200
     63 H18A        -3.4140     8.2610     8.8640 h1         1 LZP       0.062200
     64 H19         -1.9910     8.9130    10.7030 h1         1 LZP       0.062200
     65 H19A        -2.5250    10.4110     9.9160 h1         1 LZP       0.062200
     66 H20         -3.2860     8.3220    13.0050 h1         1 LZP       0.062200
     67 H20A        -4.5290     9.4960    13.4780 h1         1 LZP       0.062200
     68 H21         -5.4180     7.3460    12.4270 h1         1 LZP       0.062200
     69 H21A        -5.9520     8.8430    11.6390 h1         1 LZP       0.062200
     70 H24         -4.1380    14.0240    11.5070 hc         1 LZP       0.068450
     71 H24A        -2.5880    14.0250    12.3610 hc         1 LZP       0.068450
     72 H26         -1.4680    16.3200     8.4910 ha         1 LZP       0.138000
     73 H28         -3.5400    16.1380    12.2530 ha         1 LZP       0.111000
     74 H29         -3.5890    18.5980    12.3360 ha         1 LZP       0.105000
     75 H30         -2.5880    19.9180    10.5140 ha         1 LZP       0.120500
     76 H32         -2.5250    20.6630     8.5630 h1         1 LZP       0.003700
     77 H32A        -0.9760    20.6660     9.4180 h1         1 LZP       0.003700
     78 H35          1.1050    21.0670     8.2350 ha         1 LZP       0.106000
     79 H36          2.1820    22.1170     6.2820 ha         1 LZP       0.104000
     80 H37          0.8520    22.6370     4.2710 ha         1 LZP       0.102500
     81 H38         -1.5550    22.1070     4.2160 ha         1 LZP       0.104000
     82 H33         -2.6320    21.0580     6.1690 ha         1 LZP       0.106000
@<TRIPOS>BOND
     1     1     2 ar  
     2     1     6 ar  
     3     1    49 1   
     4     2     3 ar  
     5     2    50 1   
     6     3     4 ar  
     7     3    51 1   
     8     4     5 ar  
     9     4    52 1   
    10     5     6 ar  
    11     5     7 1   
    12     6    53 1   
    13     7    24 1   
    14     7    54 1   
    15     7    55 1   
    16     8     9 ar  
    17     8    13 ar  
    18     8    24 1   
    19     9    10 ar  
    20     9    56 1   
    21    10    11 ar  
    22    10    57 1   
    23    11    12 ar  
    24    11    58 1   
    25    12    13 ar  
    26    12    14 1   
    27    13    59 1   
    28    14    15 1   
    29    14    25 2   
    30    15    16 1   
    31    15    60 1   
    32    15    61 1   
    33    16    17 1   
    34    16    26 2   
    35    17    22 1   
    36    17    27 2   
    37    18    19 1   
    38    18    22 1   
    39    18    62 1   
    40    18    63 1   
    41    19    23 1   
    42    19    64 1   
    43    19    65 1   
    44    20    21 1   
    45    20    23 1   
    46    20    66 1   
    47    20    67 1   
    48    21    22 1   
    49    21    68 1   
    50    21    69 1   
    51    23    28 1   
    52    28    29 1   
    53    28    45 2   
    54    29    30 1   
    55    29    46 2   
    56    30    31 1   
    57    30    70 1   
    58    30    71 1   
    59    31    33 1   
    60    31    47 2   
    61    32    33 ar  
    62    32    37 ar  
    63    32    72 1   
    64    33    34 ar  
    65    34    35 ar  
    66    34    73 1   
    67    35    36 ar  
    68    35    74 1   
    69    36    37 ar  
    70    36    75 1   
    71    37    48 1   
    72    38    40 1   
    73    38    48 1   
    74    38    76 1   
    75    38    77 1   
    76    39    40 ar  
    77    39    44 ar  
    78    39    82 1   
    79    40    41 ar  
    80    41    42 ar  
    81    41    78 1   
    82    42    43 ar  
    83    42    79 1   
    84    43    44 ar  
    85    43    80 1   
    86    44    81 1   
@<TRIPOS>SUBSTRUCTURE
     1 LZP         1 TEMP              0 ****  ****    0 ROOT
