@<TRIPOS>MOLECULE
molecule
   49    51     1     0     0
SMALL
bcc


@<TRIPOS>ATOM
      1 C01          0.0000     0.0000     0.0000 ca         1 LZQ      -0.144000
      2 C07         -2.1700     0.0060     1.2160 c          1 LZQ       0.555700
      3 C09         -4.4090     0.0110     0.1930 c          1 LZQ       0.463100
      4 C10         -5.3810     0.0160    -0.9360 c          1 LZQ       0.808600
      5 C13          4.0710     1.4210     3.5880 ca         1 LZQ      -0.111300
      6 C19          1.1350    -1.4180     5.3220 ca         1 LZQ      -0.111300
      7 N01          2.1030     0.0010     3.6080 nh         1 LZQ      -0.727000
      8 O01         -4.9800     0.0220    -2.0810 o          1 LZQ      -0.814300
      9 C02          1.3790     0.0000     0.0000 ca         1 LZQ      -0.104000
     10 C14          4.3130     2.0720     4.7830 ca         1 LZQ      -0.114500
     11 C20         -0.0180    -2.0720     4.9290 ca         1 LZQ      -0.114500
     12 O02         -2.7740     0.0010     2.2680 o          1 LZQ      -0.491100
     13 O10         -4.8070     0.0060     1.3330 o          1 LZQ      -0.502100
     14 O11         -6.7040     0.0150    -0.6870 o          1 LZQ      -0.814300
     15 C03          2.0760     0.0000     1.1940 ca         1 LZQ      -0.202000
     16 C15          4.7790     3.3740     4.7780 ca         1 LZQ      -0.130250
     17 C21         -0.2460    -3.3750     5.3320 ca         1 LZQ      -0.130250
     18 C04          1.3920     0.0010     2.4050 ca         1 LZQ       0.190600
     19 C16          5.0050     4.0230     3.5780 ca         1 LZQ      -0.129500
     20 C22          0.6810    -4.0250     6.1260 ca         1 LZQ      -0.129500
     21 C05          0.0070     0.0010     2.4180 ca         1 LZQ      -0.160000
     22 C17          4.7620     3.3710     2.3840 ca         1 LZQ      -0.130250
     23 C23          1.8340    -3.3710     6.5170 ca         1 LZQ      -0.130250
     24 C06         -0.6980     0.0060     1.2120 ca         1 LZQ      -0.119600
     25 C18          4.2950     2.0700     2.3890 ca         1 LZQ      -0.114500
     26 C24          2.0640    -2.0710     6.1100 ca         1 LZQ      -0.114500
     27 C08         -2.9280     0.0120    -0.0860 c3         1 LZQ      -0.281400
     28 C11          3.5680     0.0000     3.5930 c3         1 LZQ       0.284100
     29 C12          1.3830     0.0010     4.8830 c3         1 LZQ       0.284100
     30 H01         -0.5420     0.0000    -0.9380 ha         1 LZQ       0.145000
     31 H02          1.9190    -0.0030    -0.9390 ha         1 LZQ       0.123000
     32 H14          4.1370     1.5640     5.7230 ha         1 LZQ       0.134500
     33 H20         -0.7460    -1.5620     4.3090 ha         1 LZQ       0.134500
     34 H03          3.1590    -0.0000     1.1860 ha         1 LZQ       0.122000
     35 H15          4.9690     3.8850     5.7140 ha         1 LZQ       0.127750
     36 H21         -1.1500    -3.8870     5.0250 ha         1 LZQ       0.127750
     37 H16          5.3700     5.0430     3.5730 ha         1 LZQ       0.124500
     38 H22          0.5020    -5.0450     6.4430 ha         1 LZQ       0.124500
     39 H05         -0.5280     0.0060     3.3600 ha         1 LZQ       0.152000
     40 H17          4.9380     3.8790     1.4430 ha         1 LZQ       0.127750
     41 H23          2.5620    -3.8810     7.1370 ha         1 LZQ       0.127750
     42 H18          4.1050     1.5590     1.4530 ha         1 LZQ       0.134500
     43 H24          2.9680    -1.5590     6.4180 ha         1 LZQ       0.134500
     44 H08         -2.6680     0.8990    -0.6510 hc         1 LZQ       0.084200
     45 H08A        -2.6680    -0.8690    -0.6590 hc         1 LZQ       0.084200
     46 H11          3.9200    -0.5110     2.7050 h1         1 LZQ       0.056700
     47 H11A         3.9370    -0.5110     4.4740 h1         1 LZQ       0.056700
     48 H12          1.9760     0.5120     5.6330 h1         1 LZQ       0.056700
     49 H12A         0.4350     0.5120     4.7630 h1         1 LZQ       0.056700
@<TRIPOS>BOND
     1    24     1 ar
     2     9     1 ar
     3     1    30 1
     4    24     2 1
     5     2    27 1
     6     2    12 2
     7    27     3 1
     8     3     4 1
     9     3    13 2
    10     8     4 1
    11     4    14 1
    12    25     5 ar
    13    28     5 1
    14     5    10 ar
    15    11     6 ar
    16     6    29 1
    17     6    26 ar
    18    29     7 1
    19    28     7 1
    20     7    18 1
    21    15     9 ar
    22     9    31 1
    23    10    16 ar
    24    10    32 1
    25    17    11 ar
    26    11    33 1
    27    18    15 ar
    28    15    34 1
    29    19    16 ar
    30    16    35 1
    31    17    20 ar
    32    17    36 1
    33    18    21 ar
    34    22    19 ar
    35    19    37 1
    36    20    23 ar
    37    20    38 1
    38    21    24 ar
    39    21    39 1
    40    25    22 ar
    41    22    40 1
    42    23    26 ar
    43    23    41 1
    44    25    42 1
    45    26    43 1
    46    27    44 1
    47    27    45 1
    48    28    46 1
    49    28    47 1
    50    29    48 1
    51    29    49 1
@<TRIPOS>SUBSTRUCTURE
     1 LZQ         1 TEMP              0 ****  ****    0 ROOT
