@<TRIPOS>MOLECULE
LZQ
   49    51     1     0     0
SMALL
bcc


@<TRIPOS>ATOM
      1 C01          0.0000     0.0000     0.0000 ca         1 LZQ      -0.123000
      2 C07         -2.1700     0.0060     1.2160 c          1 LZQ       0.598700
      3 C09         -4.4090     0.0110     0.1930 c          1 LZQ       0.497100
      4 C10         -5.3810     0.0160    -0.9360 c          1 LZQ       0.898600
      5 C13          4.0710     1.4210     3.5880 ca         1 LZQ      -0.119300
      6 C19          1.1350    -1.4180     5.3220 ca         1 LZQ      -0.119300
      7 N01          2.1030     0.0010     3.6080 nh         1 LZQ      -0.380000
      8 O01         -4.9800     0.0220    -2.0810 o          1 LZQ      -0.866800
      9 C02          1.3790     0.0000     0.0000 ca         1 LZQ      -0.071000
     10 C14          4.3130     2.0720     4.7830 ca         1 LZQ      -0.092000
     11 C20         -0.0180    -2.0720     4.9290 ca         1 LZQ      -0.092000
     12 O02         -2.7740     0.0010     2.2680 o          1 LZQ      -0.520100
     13 O10         -4.8070     0.0060     1.3330 o          1 LZQ      -0.528100
     14 O11         -6.7040     0.0150    -0.6870 o          1 LZQ      -0.866800
     15 C03          2.0760     0.0000     1.1940 ca         1 LZQ      -0.196000
     16 C15          4.7790     3.3740     4.7780 ca         1 LZQ      -0.101750
     17 C21         -0.2460    -3.3750     5.3320 ca         1 LZQ      -0.101750
     18 C04          1.3920     0.0010     2.4050 ca         1 LZQ       0.065600
     19 C16          5.0050     4.0230     3.5780 ca         1 LZQ      -0.104000
     20 C22          0.6810    -4.0250     6.1260 ca         1 LZQ      -0.104000
     21 C05          0.0070     0.0010     2.4180 ca         1 LZQ      -0.148000
     22 C17          4.7620     3.3710     2.3840 ca         1 LZQ      -0.101750
     23 C23          1.8340    -3.3710     6.5170 ca         1 LZQ      -0.101750
     24 C06         -0.6980     0.0060     1.2120 ca         1 LZQ      -0.118600
     25 C18          4.2950     2.0700     2.3890 ca         1 LZQ      -0.092000
     26 C24          2.0640    -2.0710     6.1100 ca         1 LZQ      -0.092000
     27 C08         -2.9280     0.0120    -0.0860 c3         1 LZQ      -0.224400
     28 C11          3.5680     0.0000     3.5930 c3         1 LZQ       0.226100
     29 C12          1.3830     0.0010     4.8830 c3         1 LZQ       0.226100
     30 H01         -0.5420     0.0000    -0.9380 ha         1 LZQ       0.123000
     31 H02          1.9190    -0.0030    -0.9390 ha         1 LZQ       0.094000
     32 H14          4.1370     1.5640     5.7230 ha         1 LZQ       0.113000
     33 H20         -0.7460    -1.5620     4.3090 ha         1 LZQ       0.113000
     34 H03          3.1590    -0.0000     1.1860 ha         1 LZQ       0.113000
     35 H15          4.9690     3.8850     5.7140 ha         1 LZQ       0.101500
     36 H21         -1.1500    -3.8870     5.0250 ha         1 LZQ       0.101500
     37 H16          5.3700     5.0430     3.5730 ha         1 LZQ       0.098500
     38 H22          0.5020    -5.0450     6.4430 ha         1 LZQ       0.098500
     39 H05         -0.5280     0.0060     3.3600 ha         1 LZQ       0.140000
     40 H17          4.9380     3.8790     1.4430 ha         1 LZQ       0.101500
     41 H23          2.5620    -3.8810     7.1370 ha         1 LZQ       0.101500
     42 H18          4.1050     1.5590     1.4530 ha         1 LZQ       0.113000
     43 H24          2.9680    -1.5590     6.4180 ha         1 LZQ       0.113000
     44 H08         -2.6680     0.8990    -0.6510 hc         1 LZQ       0.054700
     45 H08A        -2.6680    -0.8690    -0.6590 hc         1 LZQ       0.054700
     46 H11          3.9200    -0.5110     2.7050 h1         1 LZQ       0.029950
     47 H11A         3.9370    -0.5110     4.4740 h1         1 LZQ       0.029950
     48 H12          1.9760     0.5120     5.6330 h1         1 LZQ       0.029950
     49 H12A         0.4350     0.5120     4.7630 h1         1 LZQ       0.029950
@<TRIPOS>BOND
     1     1     9 ar  
     2     1    24 ar  
     3     1    30 1   
     4     2    12 2   
     5     2    24 1   
     6     2    27 1   
     7     3     4 1   
     8     3    13 2   
     9     3    27 1   
    10     4     8 1   
    11     4    14 1   
    12     5    10 ar  
    13     5    25 ar  
    14     5    28 1   
    15     6    11 ar  
    16     6    26 ar  
    17     6    29 1   
    18     7    18 1   
    19     7    28 1   
    20     7    29 1   
    21     9    15 ar  
    22     9    31 1   
    23    10    16 ar  
    24    10    32 1   
    25    11    17 ar  
    26    11    33 1   
    27    15    18 ar  
    28    15    34 1   
    29    16    19 ar  
    30    16    35 1   
    31    17    20 ar  
    32    17    36 1   
    33    18    21 ar  
    34    19    22 ar  
    35    19    37 1   
    36    20    23 ar  
    37    20    38 1   
    38    21    24 ar  
    39    21    39 1   
    40    22    25 ar  
    41    22    40 1   
    42    23    26 ar  
    43    23    41 1   
    44    25    42 1   
    45    26    43 1   
    46    27    44 1   
    47    27    45 1   
    48    28    46 1   
    49    28    47 1   
    50    29    48 1   
    51    29    49 1   
@<TRIPOS>SUBSTRUCTURE
     1 LZQ         1 TEMP              0 ****  ****    0 ROOT
