@<TRIPOS>MOLECULE
molecule
   59    64     1     0     0
SMALL
bcc


@<TRIPOS>ATOM
      1 O29          0.0000     0.0000     0.0000 o          1 LZR      -0.652500
      2 C26          1.2210     0.0000     0.0000 c          1 LZR       0.686700
      3 N28          1.8870     0.0000     1.1670 n          1 LZR      -0.313000
      4 C30          1.1430    -0.0050     2.4290 c3         1 LZR       0.124000
      5 C31          0.8880    -1.4490     2.8650 cx         1 LZR      -0.168700
      6 C32          0.2220    -1.6690     4.2250 cx         1 LZR      -0.125900
      7 C33         -0.5670    -1.9190     2.9380 cx         1 LZR      -0.125900
      8 C27          3.2450     0.0040     1.1880 cc         1 LZR       0.011600
      9 C23          3.9480     0.0140     0.0340 cd         1 LZR      -0.246000
     10 C19          3.2790     0.0190    -1.2040 cd         1 LZR      -0.029200
     11 C22          1.9220    -0.0060    -1.2250 cc         1 LZR      -0.186400
     12 C20          1.1200    -0.0460    -2.4970 c3         1 LZR      -0.037200
     13 C15          4.1100     0.0590    -2.4610 c3         1 LZR       0.273000
     14 N12          3.2590    -0.2130    -3.6250 nh         1 LZR      -0.786600
     15 C16          1.9520     0.4430    -3.6810 c3         1 LZR       0.239800
     16 C7           3.6660    -1.0630    -4.6240 cc         1 LZR       0.735800
     17 N3           2.8210    -1.3520    -5.5800 nd         1 LZR      -0.731100
     18 C1           3.1580    -2.1840    -6.5960 ca         1 LZR       0.249400
     19 C2           4.4530    -2.7510    -6.6210 ca         1 LZR      -0.239600
     20 C5           4.8220    -3.6110    -7.6570 ca         1 LZR      -0.110000
     21 C6           5.3790    -2.4070    -5.5350 c          1 LZR       0.725100
     22 O11          6.5080    -2.8640    -5.5010 o          1 LZR      -0.631500
     23 N10          4.9350    -1.5630    -4.5770 ns         1 LZR      -0.493400
     24 C4           2.2540    -2.4920    -7.6140 ca         1 LZR      -0.218000
     25 C8           2.6340    -3.3450    -8.6330 ca         1 LZR       0.169100
     26 O13          1.7550    -3.6430    -9.6230 os         1 LZR      -0.308900
     27 C17          0.4610    -3.0400    -9.5450 c3         1 LZR       0.124700
     28 C9           3.9170    -3.9040    -8.6540 ca         1 LZR       0.081100
     29 O14          4.2720    -4.7400    -9.6660 os         1 LZR      -0.318900
     30 C18          5.5960    -5.2770    -9.6280 c3         1 LZR       0.170400
     31 C21          5.8110    -6.1890   -10.8380 cx         1 LZR      -0.067300
     32 C24          7.1060    -6.9540   -10.9380 cu         1 LZR      -0.187200
     33 C25          6.9900    -5.9220   -11.7370 cu         1 LZR      -0.187200
     34 H301         1.7190     0.5060     3.1900 h1         1 LZR       0.072700
     35 H302         0.1960     0.5030     2.2910 h1         1 LZR       0.072700
     36 H27          3.7680     0.0040     2.1360 h4         1 LZR       0.157000
     37 H31          1.5980    -2.2160     2.5790 hc         1 LZR       0.088700
     38 H32         -0.0420    -0.7680     4.7670 hc         1 LZR       0.078450
     39 H33         -0.7350    -2.9590     2.6880 hc         1 LZR       0.078450
     40 H23          5.0310     0.0170     0.0620 ha         1 LZR       0.146000
     41 H151         4.5570     1.0400    -2.5640 h1         1 LZR       0.060200
     42 H152         4.8870    -0.6930    -2.4010 h1         1 LZR       0.060200
     43 H201         0.2640     0.6090    -2.3850 hc         1 LZR       0.077700
     44 H202         0.8230    -1.0710    -2.6850 hc         1 LZR       0.077700
     45 H161         1.4540     0.1840    -4.6080 h1         1 LZR       0.072200
     46 H162         2.0810     1.5170    -3.6170 h1         1 LZR       0.072200
     47 H10          5.5440    -1.3010    -3.8260 hn         1 LZR       0.331500
     48 H4           1.2280    -2.1490    -7.5500 ha         1 LZR       0.157000
     49 H5           5.8140    -4.0450    -7.6770 ha         1 LZR       0.163000
     50 H171        -0.1280    -3.3380   -10.4040 h1         1 LZR       0.043367
     51 H172         0.5650    -1.9620    -9.5340 h1         1 LZR       0.043367
     52 H173        -0.0340    -3.3640    -8.6370 h1         1 LZR       0.043367
     53 H181         6.3150    -4.4670    -9.6540 h1         1 LZR       0.048200
     54 H182         5.7290    -5.8480    -8.7170 h1         1 LZR       0.048200
     55 H21          4.9610    -6.6570   -11.3210 hc         1 LZR       0.079700
     56 H24          7.1120    -7.9570   -11.3470 ha         1 LZR       0.172500
     57 H25          6.9020    -6.0710   -12.8060 ha         1 LZR       0.172500
     58 H34          0.5350    -2.5560     4.7610 hc         1 LZR       0.078450
     59 H35         -1.3120    -1.1710     2.6940 hc         1 LZR       0.078450
@<TRIPOS>BOND
     1     1     2 2
     2     2     3 1
     3     2    11 1
     4     3     4 1
     5     3     8 1
     6     4     5 1
     7     5     6 1
     8     5     7 1
     9     6     7 1
    10     8     9 2
    11     9    10 1
    12    10    11 2
    13    10    13 1
    14    11    12 1
    15    12    15 1
    16    13    14 1
    17    14    15 1
    18    14    16 1
    19    16    17 2
    20    16    23 1
    21    17    18 1
    22    18    19 ar
    23    18    24 ar
    24    19    20 ar
    25    19    21 1
    26    20    28 ar
    27    21    22 2
    28    21    23 1
    29    24    25 ar
    30    25    26 1
    31    25    28 ar
    32    26    27 1
    33    28    29 1
    34    29    30 1
    35    30    31 1
    36    31    32 1
    37    31    33 1
    38    32    33 2
    39     4    34 1
    40     4    35 1
    41     8    36 1
    42     5    37 1
    43     6    38 1
    44     7    39 1
    45     9    40 1
    46    13    41 1
    47    13    42 1
    48    12    43 1
    49    12    44 1
    50    15    45 1
    51    15    46 1
    52    23    47 1
    53    24    48 1
    54    20    49 1
    55    27    50 1
    56    27    51 1
    57    27    52 1
    58    30    53 1
    59    30    54 1
    60    31    55 1
    61    32    56 1
    62    33    57 1
    63     6    58 1
    64     7    59 1
@<TRIPOS>SUBSTRUCTURE
     1 LZR         1 TEMP              0 ****  ****    0 ROOT
