@<TRIPOS>MOLECULE
molecule
   73    77     1     0     0
SMALL
bcc


@<TRIPOS>ATOM
      1 F85          0.0000     0.0000     0.0000 f          1 LZS      -0.216633
      2 C83          1.3200     0.0000     0.0000 c3         1 LZS       0.742900
      3 F81          1.7410     0.0000     1.2540 f          1 LZS      -0.216633
      4 F83          1.7560    -1.0930    -0.6040 f          1 LZS      -0.216633
      5 C16          1.8350     1.2590    -0.7030 c3         1 LZS      -0.442600
      6 S12          2.0750     1.0670    -2.3480 s6         1 LZS       1.386900
      7 O18          0.9000     0.5310    -2.9790 o          1 LZS      -0.594800
      8 O17          3.1890     0.1790    -2.5510 o          1 LZS      -0.594800
      9 N8           2.3970     2.4770    -3.0280 nu         1 LZS      -0.846800
     10 C3           1.4840     3.4740    -3.0550 ca         1 LZS       0.767200
     11 C1           1.7690     4.6940    -3.6680 ca         1 LZS      -0.352600
     12 C2           0.7960     5.6910    -3.6740 ca         1 LZS       0.537600
     13 C6           1.0560     6.9200    -4.2760 ca         1 LZS      -0.272300
     14 C11          2.2930     7.1550    -4.8840 ca         1 LZS       0.180100
     15 O15          2.5910     8.3610    -5.4820 os         1 LZS      -0.343900
     16 C22          1.6220     9.1400    -6.1820 c3         1 LZS       0.144700
     17 C9           3.2590     6.1600    -4.8760 ca         1 LZS       0.083100
     18 O13          4.4670     6.4000    -5.4740 os         1 LZS      -0.342900
     19 C19          5.6250     6.6610    -4.6850 c3         1 LZS       0.180400
     20 C23          6.4820     5.4000    -4.7060 cx         1 LZS      -0.167700
     21 C27          7.7210     5.6370    -5.5680 cx         1 LZS      -0.135900
     22 C26          7.8250     5.6890    -4.0450 cx         1 LZS      -0.135900
     23 C4           3.0040     4.9300    -4.2730 ca         1 LZS      -0.092000
     24 N5          -0.3910     5.4590    -3.0800 nb         1 LZS      -0.822000
     25 C10         -0.6610     4.2650    -2.4930 ca         1 LZS       0.987900
     26 N7           0.2750     3.2940    -2.4830 nb         1 LZS      -0.881000
     27 N14         -1.8950     4.0260    -1.8690 nh         1 LZS      -0.795300
     28 C20         -2.0760     2.8330    -1.0440 c3         1 LZS       0.283000
     29 C24         -3.4410     2.2290    -1.3190 cc         1 LZS      -0.015200
     30 C29         -3.7960     1.0100    -0.7690 cc         1 LZS      -0.242000
     31 C31         -5.0520     0.4580    -1.0380 cd         1 LZS       0.017600
     32 N32         -5.9950     1.0400    -1.8130 n          1 LZS      -0.302000
     33 C34         -7.2770     0.3450    -1.9940 c3         1 LZS       0.098000
     34 C35         -8.3740     0.9020    -1.0840 c3         1 LZS      -0.099700
     35 C37         -7.9880     0.9060     0.3920 c3         1 LZS      -0.086600
     36 C36         -9.6730     0.1280    -1.2720 c3         1 LZS      -0.086600
     37 C30         -5.7470     2.2900    -2.4310 c          1 LZS       0.680700
     38 O33         -6.6110     2.8390    -3.1560 o          1 LZS      -0.658500
     39 C28         -4.4280     2.9370    -2.1900 cd         1 LZS      -0.220400
     40 C25         -4.0750     4.2740    -2.8150 c3         1 LZS      -0.026200
     41 C21         -2.9840     4.9890    -2.0150 c3         1 LZS       0.239800
     42 H161         2.7760     1.5470    -0.2480 h1         1 LZS       0.148700
     43 H162         1.1190     2.0570    -0.5500 h1         1 LZS       0.148700
     44 H8           3.2950     2.6250    -3.4450 hn         1 LZS       0.486800
     45 H4           3.7650     4.1590    -4.2720 ha         1 LZS       0.134000
     46 H6           0.3050     7.7010    -4.2590 ha         1 LZS       0.162000
     47 H221         2.1260     9.8560    -6.8200 h1         1 LZS       0.043033
     48 H222         1.0040     8.4890    -6.7880 h1         1 LZS       0.043033
     49 H223         0.9990     9.6680    -5.4690 h1         1 LZS       0.043033
     50 H191         6.1790     7.4910    -5.1080 h1         1 LZS       0.053700
     51 H192         5.3340     6.8930    -3.6680 h1         1 LZS       0.053700
     52 H23          6.0890     4.3930    -4.6400 hc         1 LZS       0.095700
     53 H271         8.1420     4.7550    -6.0350 hc         1 LZS       0.076200
     54 H272         7.7640     6.5940    -6.0730 hc         1 LZS       0.076200
     55 H261         7.9320     6.6790    -3.6180 hc         1 LZS       0.076200
     56 H262         8.3100     4.8390    -3.5800 hc         1 LZS       0.076200
     57 H201        -2.0250     3.1190    -0.0010 h1         1 LZS       0.075200
     58 H202        -1.3150     2.1080    -1.3070 h1         1 LZS       0.075200
     59 H211        -2.6390     5.8620    -2.5560 h1         1 LZS       0.069700
     60 H212        -3.3630     5.2710    -1.0400 h1         1 LZS       0.069700
     61 H29         -3.0970     0.4780    -0.1360 ha         1 LZS       0.152000
     62 H31         -5.2870    -0.5020    -0.5960 h4         1 LZS       0.149000
     63 H341        -7.1390    -0.7070    -1.7750 h1         1 LZS       0.066200
     64 H342        -7.5900     0.4510    -3.0260 h1         1 LZS       0.066200
     65 H35         -8.5560     1.9290    -1.3790 hc         1 LZS       0.072700
     66 H371        -8.8710     1.0770     0.9960 hc         1 LZS       0.037533
     67 H372        -7.5510    -0.0500     0.6530 hc         1 LZS       0.037533
     68 H373        -7.2680     1.6940     0.5740 hc         1 LZS       0.037533
     69 H361       -10.4660     0.6110    -0.7140 hc         1 LZS       0.037533
     70 H362        -9.9320     0.1070    -2.3240 hc         1 LZS       0.037533
     71 H363        -9.5440    -0.8860    -0.9120 hc         1 LZS       0.037533
     72 H251        -4.9610     4.8970    -2.8400 hc         1 LZS       0.068700
     73 H252        -3.7220     4.1090    -3.8260 hc         1 LZS       0.068700
@<TRIPOS>BOND
     1     1     2 1
     2     2     3 1
     3     2     4 1
     4     2     5 1
     5     5     6 1
     6     6     7 2
     7     6     8 2
     8     6     9 1
     9     9    10 1
    10    10    11 ar
    11    10    26 ar
    12    11    12 ar
    13    11    23 ar
    14    12    13 ar
    15    12    24 ar
    16    13    14 ar
    17    14    15 1
    18    14    17 ar
    19    15    16 1
    20    17    18 1
    21    17    23 ar
    22    18    19 1
    23    19    20 1
    24    20    21 1
    25    20    22 1
    26    21    22 1
    27    24    25 ar
    28    25    26 ar
    29    25    27 1
    30    27    28 1
    31    27    41 1
    32    28    29 1
    33    29    30 1
    34    29    39 2
    35    30    31 2
    36    31    32 1
    37    32    33 1
    38    32    37 1
    39    33    34 1
    40    34    35 1
    41    34    36 1
    42    37    38 2
    43    37    39 1
    44    39    40 1
    45    40    41 1
    46     5    42 1
    47     5    43 1
    48     9    44 1
    49    23    45 1
    50    13    46 1
    51    16    47 1
    52    16    48 1
    53    16    49 1
    54    19    50 1
    55    19    51 1
    56    20    52 1
    57    21    53 1
    58    21    54 1
    59    22    55 1
    60    22    56 1
    61    28    57 1
    62    28    58 1
    63    41    59 1
    64    41    60 1
    65    30    61 1
    66    31    62 1
    67    33    63 1
    68    33    64 1
    69    34    65 1
    70    35    66 1
    71    35    67 1
    72    35    68 1
    73    36    69 1
    74    36    70 1
    75    36    71 1
    76    40    72 1
    77    40    73 1
@<TRIPOS>SUBSTRUCTURE
     1 LZS         1 TEMP              0 ****  ****    0 ROOT
