@<TRIPOS>MOLECULE
molecule
   82    85     1     0     0
SMALL
bcc


@<TRIPOS>ATOM
      1 C1           0.0000     0.0000     0.0000 ca         1 LZT      -0.020300
      2 C2           1.3790     0.0000     0.0000 ca         1 LZT      -0.165000
      3 C3           2.0770     0.0000     1.2020 ca         1 LZT       0.173100
      4 O4           3.4340    -0.0010     1.1980 os         1 LZT      -0.324900
      5 C5           4.0860    -0.0000     2.4690 c3         1 LZT       0.127700
      6 C6           1.3860     0.0010     2.4090 ca         1 LZT      -0.239000
      7 C7           0.0220     0.0010     2.4200 ca         1 LZT      -0.019000
      8 C8          -0.6960     0.0010     1.2120 ca         1 LZT      -0.232600
      9 C9          -2.1470     0.0010     0.9750 c          1 LZT       0.587700
     10 O10         -3.0070     0.0010     1.8300 o          1 LZT      -0.521100
     11 C11         -2.3810    -0.0010    -0.5160 c3         1 LZT      -0.168400
     12 C12         -0.9820     0.0060    -1.1480 c3         1 LZT      -0.010400
     13 C13         -0.7960     1.2600    -2.0020 c3         1 LZT      -0.146400
     14 C15         -2.5540     7.9430   -14.6330 ca         1 LZT      -0.071300
     15 C16         -2.6730     6.5740   -14.7870 ca         1 LZT      -0.130500
     16 C17         -3.1880     5.8050   -13.7600 ca         1 LZT      -0.107500
     17 C18         -3.5830     6.4050   -12.5800 ca         1 LZT      -0.129300
     18 C19         -3.4640     7.7740   -12.4250 ca         1 LZT      -0.107500
     19 C20         -2.9440     8.5410   -13.4500 ca         1 LZT      -0.130500
     20 C21         -4.1450     5.5660   -11.4590 c3         1 LZT       0.161300
     21 C23         -3.3210     4.3590    -9.5100 c          1 LZT       0.651100
     22 O24         -4.4630     4.0330    -9.2650 o          1 LZT      -0.616100
     23 C25         -2.2000     3.9060    -8.6110 c3         1 LZT       0.042700
     24 C26         -1.2010     3.0740    -9.4200 c3         1 LZT      -0.090400
     25 C28         -0.0020     2.7210    -8.5390 c3         1 LZT      -0.032100
     26 C29         -2.0780     2.9930    -6.3560 c          1 LZT       0.664100
     27 O30         -1.0270     3.5790    -6.2060 o          1 LZT      -0.614100
     28 C31         -2.6400     2.1540    -5.2360 c3         1 LZT       0.054700
     29 N32         -1.7360     2.2100    -4.0840 ns         1 LZT      -0.555900
     30 C33         -4.0130     2.6950    -4.8330 c3         1 LZT       0.132100
     31 O34         -3.9020     4.0820    -4.5050 oh         1 LZT      -0.605800
     32 C35         -4.5280     1.9230    -3.6160 c3         1 LZT      -0.135100
     33 C36          0.9810     1.9020    -9.3360 ca         1 LZT      -0.084300
     34 C37          0.8760     0.5230    -9.3570 ca         1 LZT      -0.125500
     35 C38          1.9850     2.5290   -10.0500 ca         1 LZT      -0.125500
     36 C39          1.7780    -0.2280   -10.0870 ca         1 LZT      -0.125500
     37 C40          2.7850     0.4000   -10.7960 ca         1 LZT      -0.132000
     38 C41          2.8860     1.7780   -10.7800 ca         1 LZT      -0.125500
     39 C42         -1.7260     1.2050    -3.1870 c          1 LZT       0.660100
     40 O43         -2.4630     0.2520    -3.3330 o          1 LZT      -0.629100
     41 H2           1.9190    -0.0200    -0.9390 ha         1 LZT       0.147000
     42 H5           5.1590    -0.0010     2.3240 h1         1 LZT       0.044367
     43 H5A          3.7980     0.8850     3.0220 h1         1 LZT       0.044367
     44 H5B          3.7960    -0.8840     3.0240 h1         1 LZT       0.044367
     45 H6           1.9330     0.0010     3.3440 ha         1 LZT       0.140000
     46 H7          -0.5100     0.0020     3.3640 ha         1 LZT       0.145000
     47 H11         -2.9030    -0.9070    -0.8000 hc         1 LZT       0.086700
     48 H11A        -2.9120     0.9000    -0.8010 hc         1 LZT       0.086700
     49 H12         -0.8470    -0.8830    -1.7520 hc         1 LZT       0.086700
     50 H13         -1.0190     2.1380    -1.4090 hc         1 LZT       0.071700
     51 H13A         0.2290     1.3110    -2.3500 hc         1 LZT       0.071700
     52 H14         -2.5470     8.5850   -16.6630 hc         1 LZT       0.046033
     53 H14A        -0.9500     8.5290   -15.9040 hc         1 LZT       0.046033
     54 H14B        -2.0780     9.8300   -15.4970 hc         1 LZT       0.046033
     55 H17         -3.2810     4.7330   -13.8810 ha         1 LZT       0.135000
     56 H19         -3.7720     8.2430   -11.4980 ha         1 LZT       0.135000
     57 H20         -2.8510     9.6140   -13.3290 ha         1 LZT       0.134000
     58 H21         -4.6480     4.7000   -11.8730 h1         1 LZT       0.060200
     59 H21A        -4.8520     6.1550   -10.8870 h1         1 LZT       0.060200
     60 H25         -1.6970     4.7710    -8.1970 h1         1 LZT       0.097700
     61 H26         -1.6810     2.1640    -9.7600 hc         1 LZT       0.052700
     62 H26A        -0.8650     3.6470   -10.2760 hc         1 LZT       0.052700
     63 H28          0.4780     3.6310    -8.1990 hc         1 LZT       0.064200
     64 H28A        -0.3390     2.1480    -7.6830 hc         1 LZT       0.064200
     65 H31         -2.7390     1.1280    -5.5680 h1         1 LZT       0.098700
     66 HN32        -1.1220     2.9910    -3.9670 hn         1 LZT       0.344500
     67 H33         -4.7060     2.5720    -5.6570 h1         1 LZT       0.037700
     68 HO34        -4.7500     4.4900    -4.5730 ho         1 LZT       0.409000
     69 H35         -4.2720     0.8760    -3.7170 hc         1 LZT       0.056367
     70 H35A        -5.6040     2.0270    -3.5510 hc         1 LZT       0.056367
     71 H35B        -4.0730     2.3210    -2.7170 hc         1 LZT       0.056367
     72 H37          0.0870     0.0320    -8.8010 ha         1 LZT       0.128500
     73 H38          2.0650     3.6090   -10.0380 ha         1 LZT       0.128500
     74 H39          1.6980    -1.3080   -10.1020 ha         1 LZT       0.128500
     75 H40          3.4920    -0.1880   -11.3690 ha         1 LZT       0.128000
     76 H41          3.6740     2.2690   -11.3380 ha         1 LZT       0.128500
     77 N27         -2.7450     3.0910    -7.5230 ns         1 LZT      -0.563900
     78 N22         -3.0550     5.1260   -10.5850 ns         1 LZT      -0.576900
     79 H16         -2.3630     6.1040   -15.7130 ha         1 LZT       0.134000
     80 C14         -1.9930     8.7800   -15.7530 c3         1 LZT      -0.050800
     81 HN22        -2.1170     5.4270   -10.7660 hn         1 LZT       0.322500
     82 HN27        -3.5950     2.5810    -7.6580 hn         1 LZT       0.336500
@<TRIPOS>BOND
     1    12     1 1
     2     8     1 ar
     3     1     2 ar
     4     2     3 ar
     5     2    41 1
     6     6     3 ar
     7     3     4 1
     8     4     5 1
     9     5    42 1
    10     5    43 1
    11     5    44 1
    12     7     6 ar
    13     6    45 1
    14     8     7 ar
    15     7    46 1
    16     9     8 1
    17    10     9 2
    18    11     9 1
    19    11    12 1
    20    11    47 1
    21    11    48 1
    22    12    13 1
    23    12    49 1
    24    39    13 1
    25    13    50 1
    26    13    51 1
    27    80    14 1
    28    80    52 1
    29    80    53 1
    30    80    54 1
    31    19    14 ar
    32    14    15 ar
    33    15    16 ar
    34    15    79 1
    35    17    16 ar
    36    16    55 1
    37    18    17 ar
    38    17    20 1
    39    19    18 ar
    40    18    56 1
    41    19    57 1
    42    20    78 1
    43    20    58 1
    44    20    59 1
    45    78    21 1
    46    78    81 1
    47    21    22 2
    48    21    23 1
    49    23    24 1
    50    23    77 1
    51    23    60 1
    52    24    25 1
    53    24    61 1
    54    24    62 1
    55    77    26 1
    56    77    82 1
    57    33    25 1
    58    25    63 1
    59    25    64 1
    60    27    26 2
    61    26    28 1
    62    30    28 1
    63    28    29 1
    64    28    65 1
    65    29    39 1
    66    29    66 1
    67    32    30 1
    68    30    31 1
    69    30    67 1
    70    31    68 1
    71    32    69 1
    72    32    70 1
    73    32    71 1
    74    34    33 ar
    75    33    35 ar
    76    36    34 ar
    77    34    72 1
    78    38    35 ar
    79    35    73 1
    80    36    37 ar
    81    36    74 1
    82    37    38 ar
    83    37    75 1
    84    38    76 1
    85    40    39 2
@<TRIPOS>SUBSTRUCTURE
     1 LZT         1 TEMP              0 ****  ****    0 ROOT
