@<TRIPOS>MOLECULE
LZU
   51    54     1     0     0
SMALL
bcc


@<TRIPOS>ATOM
      1 CAA          0.0000     0.0000     0.0000 c3         1 LZU       0.175100
      2 CAB          3.9040    -7.6390    -3.2850 c3         1 LZU       0.109000
      3 CAC         -1.5760     0.4270    -5.1620 ca         1 LZU      -0.059000
      4 CAD         -2.0220    -0.0120    -6.3940 ca         1 LZU      -0.132000
      5 CAE          4.2760     0.0000     0.0000 c3         1 LZU      -0.024400
      6 CAF          3.5220     0.0000     1.3320 c3         1 LZU      -0.026400
      7 CAG          3.5220    -0.8760    -1.0040 c3         1 LZU      -0.034400
      8 CAH         -0.5130    -0.2040    -4.5430 ca         1 LZU      -0.172000
      9 CAI         -1.4070    -1.0880    -7.0080 ca         1 LZU      -0.033000
     10 CAJ          2.4320    -5.8430    -5.0560 ca         1 LZU      -0.163000
     11 CAK          1.7390    -5.1970    -6.0630 ca         1 LZU      -0.017000
     12 CAL          1.3300    -1.2330    -2.1510 c3         1 LZU      -0.088400
     13 CAM          2.0940     0.5020     1.1060 c3         1 LZU       0.156800
     14 CAN          1.9470    -1.0920    -3.5450 c3         1 LZU      -0.041700
     15 CAO          2.2720    -3.8710    -3.6870 ca         1 LZU      -0.146000
     16 CAP          2.0940    -0.3490    -1.1640 c3         1 LZU       0.136500
     17 CAQ          2.6990    -5.1800    -3.8650 ca         1 LZU       0.098900
     18 CAR          0.1110    -1.2880    -5.1500 ca         1 LZU      -0.054300
     19 CAS          1.5760    -3.2180    -4.6990 ca         1 LZU      -0.042300
     20 CAT         -0.3400    -1.7280    -6.3920 ca         1 LZU       0.052900
     21 CAU          1.3080    -3.8890    -5.8910 ca         1 LZU       0.045900
     22 NAV          1.4150    -0.3700     0.1380 n3         1 LZU      -0.536600
     23 NAW          1.1820    -1.8970    -4.5000 na         1 LZU       0.217900
     24 SAY          0.4220    -3.1000    -7.1900 ss         1 LZU      -0.356800
     25 H1          -0.5530    -0.8350    -0.4120 h1         1 LZU       0.003367
     26 H2          -0.4030     0.2550     0.9730 h1         1 LZU       0.003367
     27 H3          -0.0880     0.8530    -0.6620 h1         1 LZU       0.003367
     28 H4           4.4510    -8.2400    -2.5690 h1         1 LZU       0.037367
     29 H5           2.9610    -8.1200    -3.5150 h1         1 LZU       0.037367
     30 H6           4.4880    -7.5380    -4.1920 h1         1 LZU       0.037367
     31 H7          -2.0580     1.2700    -4.6810 ha         1 LZU       0.102000
     32 H8          -2.8550     0.4840    -6.8770 ha         1 LZU       0.108000
     33 H9           5.2720    -0.3980     0.1490 hc         1 LZU       0.013200
     34 H10          4.3370     1.0130    -0.3800 hc         1 LZU       0.013200
     35 H11          3.4910    -1.0080     1.7290 hc         1 LZU       0.020200
     36 H12          4.0270     0.6540     2.0320 hc         1 LZU       0.020200
     37 H13          3.4910    -1.8960    -0.6410 hc         1 LZU       0.025700
     38 H14          4.0270    -0.8430    -1.9620 hc         1 LZU       0.025700
     39 H15         -0.1670     0.1460    -3.5780 ha         1 LZU       0.126000
     40 H16         -1.7580    -1.4310    -7.9730 ha         1 LZU       0.115000
     41 H17          2.7650    -6.8640    -5.1960 ha         1 LZU       0.120000
     42 H18          1.5320    -5.7140    -6.9920 ha         1 LZU       0.116000
     43 H19          0.2920    -0.9260    -2.1820 hc         1 LZU       0.044700
     44 H20          1.3920    -2.2670    -1.8320 hc         1 LZU       0.044700
     45 H21          1.5540     0.4860     2.0450 h1         1 LZU       0.007700
     46 H22          2.1250     1.5140     0.7190 h1         1 LZU       0.007700
     47 H23          2.9740    -1.4370    -3.5220 h1         1 LZU       0.039700
     48 H24          1.9220    -0.0520    -3.8470 h1         1 LZU       0.039700
     49 H25          2.4810    -3.3570    -2.7570 ha         1 LZU       0.143000
     50 H26          2.1270     0.6680    -1.5350 h1         1 LZU       0.009700
     51 SAX          3.5810    -6.0000    -2.5780 ss         1 LZU      -0.332000
@<TRIPOS>BOND
     1     1    22 1   
     2     1    25 1   
     3     1    26 1   
     4     1    27 1   
     5     2    28 1   
     6     2    29 1   
     7     2    30 1   
     8     2    51 1   
     9     3     4 ar  
    10     3     8 ar  
    11     3    31 1   
    12     4     9 ar  
    13     4    32 1   
    14     5     6 1   
    15     5     7 1   
    16     5    33 1   
    17     5    34 1   
    18     6    13 1   
    19     6    35 1   
    20     6    36 1   
    21     7    16 1   
    22     7    37 1   
    23     7    38 1   
    24     8    18 ar  
    25     8    39 1   
    26     9    20 ar  
    27     9    40 1   
    28    10    11 ar  
    29    10    17 ar  
    30    10    41 1   
    31    11    21 ar  
    32    11    42 1   
    33    12    14 1   
    34    12    16 1   
    35    12    43 1   
    36    12    44 1   
    37    13    22 1   
    38    13    45 1   
    39    13    46 1   
    40    14    23 1   
    41    14    47 1   
    42    14    48 1   
    43    15    17 ar  
    44    15    19 ar  
    45    15    49 1   
    46    16    22 1   
    47    16    50 1   
    48    17    51 1   
    49    18    20 ar  
    50    18    23 1   
    51    19    21 ar  
    52    19    23 1   
    53    20    24 1   
    54    21    24 1   
@<TRIPOS>SUBSTRUCTURE
     1 LZU         1 TEMP              0 ****  ****    0 ROOT
