@<TRIPOS>MOLECULE
LZZ
   56    59     1     0     0
SMALL
bcc


@<TRIPOS>ATOM
      1 CAR         1.6870    0.2710   -0.1110 c3        1 LZZ     -0.098100
      2 CAQ         0.1880    0.0460   -0.0080 c3        1 LZZ     -0.026000
      3 CAS        -0.2500    0.0100    1.4470 c3        1 LZZ     -0.063400
      4 CAT         0.3450   -1.2020    2.1460 c3        1 LZZ     -0.075400
      5 CAU         0.0560   -2.5280    1.4500 c3        1 LZZ     -0.049700
      6 CAV         0.7570   -3.7130    2.1540 c3        1 LZZ      0.000200
      7 CAW         2.2430   -3.4320    2.3610 c3        1 LZZ     -0.084100
      8 CAA         0.0820   -3.9130    3.5210 c3        1 LZZ     -0.070400
      9 CAB         0.5270   -5.1700    4.2310 c3        1 LZZ     -0.075400
     10 CAC         0.2470   -6.3910    3.3640 c3        1 LZZ      0.145100
     11 OAD         0.7380   -7.5210    4.0750 oh        1 LZZ     -0.600800
     12 CAE         0.9430   -6.2580    2.0110 c3        1 LZZ     -0.076200
     13 CAF         0.6100   -4.9710    1.3350 c2        1 LZZ     -0.104400
     14 CAG         0.2360   -4.9690    0.0470 c2        1 LZZ     -0.168200
     15 CAH        -0.0930   -3.7550   -0.7280 c3        1 LZZ     -0.042200
     16 CAI         0.3940   -2.4840   -0.0470 c3        1 LZZ     -0.046700
     17 CAJ        -0.2830   -1.2750   -0.6570 c3        1 LZZ     -0.064700
     18 CAK        -0.1460   -1.0290   -2.1530 c3        1 LZZ     -0.070400
     19 CAL        -0.4970    0.4490   -2.3330 c3        1 LZZ     -0.103400
     20 CAM        -0.5250    1.0940   -0.9220 c3        1 LZZ      0.050800
     21 OAX        -1.8590    1.2300   -0.4470 oh        1 LZZ     -0.585800
     22 CAN         0.1630    2.4560   -0.8990 c         1 LZZ      0.550100
     23 OAO         1.0760    2.7400   -1.6800 o         1 LZZ     -0.529100
     24 CAP        -0.3460    3.4220    0.1200 c3        1 LZZ     -0.195100
     25 HAU         2.2540   -0.5750    0.3450 hc        1 LZZ      0.045367
     26 HAV         1.9680    1.2110    0.4240 hc        1 LZZ      0.045367
     27 HAT         1.9950    0.3700   -1.1810 hc        1 LZZ      0.045367
     28 HAX         0.0860    0.9410    1.9740 hc        1 LZZ      0.050700
     29 HAW        -1.3700   -0.0230    1.4990 hc        1 LZZ      0.050700
     30 HAY         1.4540   -1.0530    2.2350 hc        1 LZZ      0.042700
     31 HAZ        -0.0700   -1.2430    3.1880 hc        1 LZZ      0.042700
     32 HA0        -1.0560   -2.7100    1.5240 hc        1 LZZ      0.050700
     33 HA2         2.7030   -3.0350    1.4240 hc        1 LZZ      0.038033
     34 HA3         2.7820   -4.3660    2.6500 hc        1 LZZ      0.038033
     35 HA1         2.3900   -2.6840    3.1770 hc        1 LZZ      0.038033
     36 HAB         0.3120   -3.0310    4.1750 hc        1 LZZ      0.044700
     37 HAA        -1.0300   -3.9470    3.3760 hc        1 LZZ      0.044700
     38 HAC        -0.0190   -5.2760    5.2030 hc        1 LZZ      0.055700
     39 HAD         1.6230   -5.1260    4.4630 hc        1 LZZ      0.055700
     40 HAE        -0.8630   -6.5070    3.2090 h1        1 LZZ      0.035700
     41 HA4         0.6050   -8.2870    3.5050 ho        1 LZZ      0.398000
     42 HAG         2.0540   -6.3190    2.1680 hc        1 LZZ      0.051700
     43 HAF         0.6530   -7.1290    1.3650 hc        1 LZZ      0.051700
     44 HAH         0.1430   -5.9150   -0.5120 ha        1 LZZ      0.120000
     45 HAI        -1.2090   -3.7090   -0.8670 hc        1 LZZ      0.049700
     46 HAJ         0.3630   -3.8190   -1.7530 hc        1 LZZ      0.049700
     47 HAK         1.5080   -2.4120   -0.1820 hc        1 LZZ      0.058700
     48 HAL        -1.3900   -1.3650   -0.4400 hc        1 LZZ      0.060700
     49 HAN         0.8980   -1.2350   -2.4980 hc        1 LZZ      0.047200
     50 HAM        -0.8360   -1.6870   -2.7350 hc        1 LZZ      0.047200
     51 HAO        -1.4960    0.5610   -2.8210 hc        1 LZZ      0.060200
     52 HAP         0.2670    0.9600   -2.9710 hc        1 LZZ      0.060200
     53 HA5        -2.3530    1.7040   -1.1270 ho        1 LZZ      0.401000
     54 HAR        -0.4290    2.9140    1.1120 hc        1 LZZ      0.067700
     55 HAQ        -1.3660    3.7690   -0.1800 hc        1 LZZ      0.067700
     56 HAS         0.3310    4.3060    0.2040 hc        1 LZZ      0.067700
@<TRIPOS>BOND
     1    1    2 1   
     2    1   25 1   
     3    1   26 1   
     4    1   27 1   
     5    2    3 1   
     6    2   17 1   
     7    2   20 1   
     8    3    4 1   
     9    3   28 1   
    10    3   29 1   
    11    4    5 1   
    12    4   30 1   
    13    4   31 1   
    14    5    6 1   
    15    5   16 1   
    16    5   32 1   
    17    6    7 1   
    18    6    8 1   
    19    6   13 1   
    20    7   33 1   
    21    7   34 1   
    22    7   35 1   
    23    8    9 1   
    24    8   36 1   
    25    8   37 1   
    26    9   10 1   
    27    9   38 1   
    28    9   39 1   
    29   10   11 1   
    30   10   12 1   
    31   10   40 1   
    32   11   41 1   
    33   12   13 1   
    34   12   42 1   
    35   12   43 1   
    36   13   14 2   
    37   14   15 1   
    38   14   44 1   
    39   15   16 1   
    40   15   45 1   
    41   15   46 1   
    42   16   17 1   
    43   16   47 1   
    44   17   18 1   
    45   17   48 1   
    46   18   19 1   
    47   18   49 1   
    48   18   50 1   
    49   19   20 1   
    50   19   51 1   
    51   19   52 1   
    52   20   21 1   
    53   20   22 1   
    54   21   53 1   
    55   22   23 2   
    56   22   24 1   
    57   24   54 1   
    58   24   55 1   
    59   24   56 1   
@<TRIPOS>SUBSTRUCTURE
     1 LZZ         1 TEMP              0 ****  ****    0 ROOT
