@<TRIPOS>MOLECULE
molecule
   56    59     1     0     0
SMALL
bcc


@<TRIPOS>ATOM
      1 CAR          1.5290     0.0000     0.0000 c3         1 LZZ      -0.109100
      2 CAQ          0.0000     0.0000     0.0000 c3         1 LZZ      -0.046000
      3 CAS         -0.5150     0.0000     1.4270 c3         1 LZZ      -0.056400
      4 CAT          0.1380    -1.1930     2.1430 c3         1 LZZ      -0.083400
      5 CAU         -0.1650    -2.5120     1.4360 c3         1 LZZ      -0.051700
      6 CAV          0.5640    -3.6470     2.1360 c3         1 LZZ      -0.014800
      7 CAW          1.9660    -3.1580     2.5060 c3         1 LZZ      -0.087100
      8 CAA         -0.1650    -4.0220     3.4290 c3         1 LZZ      -0.066400
      9 CAB          0.5760    -5.1720     4.1140 c3         1 LZZ      -0.092400
     10 CAC          0.5580    -6.4070     3.2120 c3         1 LZZ       0.149100
     11 OAD          1.1770    -7.5020     3.8910 oh         1 LZZ      -0.607800
     12 CAE          1.3250    -6.1090     1.9200 c3         1 LZZ      -0.050200
     13 CAF          0.7210    -4.8690     1.2800 c2         1 LZZ      -0.112400
     14 CAG          0.3730    -4.9280     0.0290 c2         1 LZZ      -0.171200
     15 CAH         -0.2390    -3.7700    -0.7040 c3         1 LZZ      -0.039200
     16 CAI          0.2280    -2.4670    -0.0450 c3         1 LZZ      -0.059700
     17 CAJ         -0.5270    -1.2920    -0.6800 c3         1 LZZ      -0.064700
     18 CAK         -0.2280    -1.0270    -2.1600 c3         1 LZZ      -0.072400
     19 CAL         -0.6260     0.4640    -2.3340 c3         1 LZZ      -0.105400
     20 CAM         -0.5180     1.1110    -0.9080 c3         1 LZZ       0.060800
     21 OAX         -1.8110     1.5410    -0.4760 oh         1 LZZ      -0.591800
     22 CAN          0.4440     2.2700    -0.9160 c          1 LZZ       0.553100
     23 OAO          1.2780     2.3570    -1.7860 o          1 LZZ      -0.527100
     24 CAP          0.3670     3.3210     0.1610 c3         1 LZZ      -0.194100
     25 HAU          1.8900    -1.0010     0.2020 hc         1 LZZ       0.049367
     26 HAV          1.8900     0.6760     0.7660 hc         1 LZZ       0.049367
     27 HAT          1.8900     0.3250    -0.9680 hc         1 LZZ       0.049367
     28 HAX         -0.2330     0.9230     1.9200 hc         1 LZZ       0.051700
     29 HAW         -1.5920    -0.1130     1.4300 hc         1 LZZ       0.051700
     30 HAY          1.2100    -1.0450     2.1670 hc         1 LZZ       0.046200
     31 HAZ         -0.2400    -1.2440     3.1570 hc         1 LZZ       0.046200
     32 HA0         -1.2300    -2.6980     1.5020 hc         1 LZZ       0.052700
     33 HA2          2.4120    -2.6630     1.6520 hc         1 LZZ       0.038367
     34 HA3          1.8990    -2.4620     3.3330 hc         1 LZZ       0.038367
     35 HA1          2.5780    -4.0040     2.7940 hc         1 LZZ       0.038367
     36 HAB         -1.1760    -4.3340     3.1950 hc         1 LZZ       0.045700
     37 HAA         -0.1900    -3.1650     4.0900 hc         1 LZZ       0.045700
     38 HAC          1.6020    -4.8780     4.3000 hc         1 LZZ       0.052700
     39 HAD          0.0870    -5.4060     5.0520 hc         1 LZZ       0.052700
     40 HAE         -0.4670    -6.6600     2.9690 h1         1 LZZ       0.032700
     41 HA4          0.5610    -8.2120     3.9690 ho         1 LZZ       0.400000
     42 HAG          2.3680    -5.9270     2.1500 hc         1 LZZ       0.057200
     43 HAF          1.2360    -6.9480     1.2410 hc         1 LZZ       0.057200
     44 HAH          0.5320    -5.8550    -0.5090 ha         1 LZZ       0.121000
     45 HAI         -1.3190    -3.8370    -0.6490 hc         1 LZZ       0.050700
     46 HAJ          0.0790    -3.7880    -1.7390 hc         1 LZZ       0.050700
     47 HAK          1.2990    -2.3410    -0.1560 hc         1 LZZ       0.071700
     48 HAL         -1.5940    -1.3940    -0.5200 hc         1 LZZ       0.067700
     49 HAN         -0.8390    -1.6610    -2.7920 hc         1 LZZ       0.050700
     50 HAM          0.8260    -1.1670    -2.3670 hc         1 LZZ       0.050700
     51 HAO          0.0580     0.9530    -3.0170 hc         1 LZZ       0.061200
     52 HAP         -1.6430     0.5370    -2.6990 hc         1 LZZ       0.061200
     53 HA5         -2.2140     2.0560    -1.1560 ho         1 LZZ       0.405000
     54 HAR          0.2730     4.2990    -0.2950 hc         1 LZZ       0.065033
     55 HAQ         -0.4950     3.1320     0.7900 hc         1 LZZ       0.065033
     56 HAS          1.2670     3.2880     0.7630 hc         1 LZZ       0.065033
@<TRIPOS>BOND
     1    12    13 1
     2    12    10 1
     3    14    15 1
     4    14    13 2
     5    15    16 1
     6    13     6 1
     7     7     6 1
     8    18    19 1
     9    18    17 1
    10    11    10 1
    11    16    17 1
    12    16     5 1
    13    10     9 1
    14     6     5 1
    15     6     8 1
    16    19    20 1
    17     1     2 1
    18    17     2 1
    19     9     8 1
    20     5     4 1
    21     2    20 1
    22     2     3 1
    23     4     3 1
    24    20    22 1
    25    20    21 1
    26    23    22 2
    27    22    24 1
    28     1    25 1
    29     1    26 1
    30     1    27 1
    31     3    28 1
    32     3    29 1
    33     4    30 1
    34     4    31 1
    35     5    32 1
    36     7    33 1
    37     7    34 1
    38     7    35 1
    39     8    36 1
    40     8    37 1
    41     9    38 1
    42     9    39 1
    43    10    40 1
    44    11    41 1
    45    12    42 1
    46    12    43 1
    47    14    44 1
    48    15    45 1
    49    15    46 1
    50    16    47 1
    51    17    48 1
    52    18    49 1
    53    18    50 1
    54    19    51 1
    55    19    52 1
    56    21    53 1
    57    24    54 1
    58    24    55 1
    59    24    56 1
@<TRIPOS>SUBSTRUCTURE
     1 LZZ         1 TEMP              0 ****  ****    0 ROOT
