@<TRIPOS>MOLECULE
molecule
   32    32     1     0     0
SMALL
bcc


@<TRIPOS>ATOM
      1 O5           0.0000     0.0000     0.0000 oh         1 K00      -0.623800
      2 C5           1.4300     0.0000     0.0000 c3         1 K00       0.112100
      3 C4           1.9410     0.0000     1.4440 c3         1 K00       0.087100
      4 O4           1.5300    -1.2030     2.0970 oh         1 K00      -0.607800
      5 C3           3.4710     0.0780     1.4320 c3         1 K00       0.146600
      6 F1           3.9920    -1.0590     0.8070 f          1 K00      -0.227300
      7 C2           3.9040     1.3300     0.6620 c3         1 K00       0.009100
      8 C1           5.4080     1.3830     0.5940 c          1 K00       0.904600
      9 O1B          5.9680     1.2890    -0.4710 o          1 K00      -0.820300
     10 O1A          6.1250     1.5340     1.7190 o          1 K00      -0.820300
     11 O6           3.3690     1.2810    -0.6620 os         1 K00      -0.363600
     12 C6           1.9400     1.2530    -0.7150 c3         1 K00       0.141100
     13 C7           1.4840     1.2310    -2.1750 c3         1 K00       0.167100
     14 O7           1.9080     0.0120    -2.7880 oh         1 K00      -0.580800
     15 C8           2.0980     2.4180    -2.9190 c3         1 K00       0.137100
     16 O8           1.6730     3.6370    -2.3060 oh         1 K00      -0.613800
     17 C9           1.6410     2.3950    -4.3790 c3         1 K00       0.104400
     18 O9           2.3040     3.4340    -5.1020 oh         1 K00      -0.611800
     19 H2           3.5290     2.2110     1.1680 h1         1 K00       0.033700
     20 H5          -0.3140    -0.8820    -0.1140 ho         1 K00       0.399000
     21 HA           1.7960    -0.8810    -0.5120 h1         1 K00       0.079700
     22 HB           1.5400     0.8590     1.9690 h1         1 K00       0.041700
     23 H6           1.5460     2.1340    -0.2210 h1         1 K00       0.054700
     24 H4           1.3120    -1.0140     2.9950 ho         1 K00       0.393000
     25 H3           3.8360     0.1380     2.4500 h1         1 K00       0.072700
     26 H7           0.4030     1.2990    -2.2160 h1         1 K00       0.042700
     27 HC           1.1730    -0.4010    -3.2090 ho         1 K00       0.384000
     28 H8           3.1780     2.3510    -2.8770 h1         1 K00       0.100700
     29 HD           2.2840     4.3240    -2.5150 ho         1 K00       0.417000
     30 H91C         0.5700     2.5510    -4.4250 h1         1 K00       0.023200
     31 H92C         1.8850     1.4360    -4.8190 h1         1 K00       0.023200
     32 H9           2.0520     3.3950    -6.0100 ho         1 K00       0.393000
@<TRIPOS>BOND
     1     1     2 1
     2     2     3 1
     3     2    12 1
     4     3     4 1
     5     3     5 1
     6     5     6 1
     7     5     7 1
     8     7     8 1
     9     7    11 1
    10     8     9 1
    11     8    10 1
    12    11    12 1
    13    12    13 1
    14    13    14 1
    15    13    15 1
    16    15    16 1
    17    15    17 1
    18    17    18 1
    19     1    20 1
    20     2    21 1
    21     3    22 1
    22    12    23 1
    23     4    24 1
    24     5    25 1
    25     7    19 1
    26    13    26 1
    27    14    27 1
    28    15    28 1
    29    16    29 1
    30    17    30 1
    31    17    31 1
    32    18    32 1
@<TRIPOS>SUBSTRUCTURE
     1 K00         1 TEMP              0 ****  ****    0 ROOT
