@<TRIPOS>MOLECULE
K00
   32    32     1     0     0
SMALL
bcc


@<TRIPOS>ATOM
      1 O5         -0.1880    0.3960    0.1960 oh        1 K00     -0.604800
      2 C5          1.2070    0.1460    0.0990 c3        1 K00      0.086100
      3 C4          1.8390    0.0680    1.4990 c3        1 K00      0.063100
      4 O4          1.3010   -1.0440    2.1950 oh        1 K00     -0.615800
      5 C3          3.3810   -0.0030    1.3850 c3        1 K00      0.132600
      6 F1          3.7490   -1.2350    0.8650 f         1 K00     -0.243300
      7 C2          3.8480    1.1920    0.5350 c3        1 K00     -0.019900
      8 C1          5.4050    1.2390    0.3840 c         1 K00      0.940600
      9 O1B         5.9000    1.4400   -0.7490 o         1 K00     -0.812300
     10 O1A         6.0360    1.1120    1.4680 o         1 K00     -0.812300
     11 O6          3.2520    1.1540   -0.7530 os        1 K00     -0.386600
     12 C6          1.8310    1.2860   -0.7200 c3        1 K00      0.103100
     13 C7          1.3900    1.2150   -2.1920 c3        1 K00      0.166100
     14 O7          1.8770    0.0460   -2.8230 oh        1 K00     -0.615800
     15 C8          1.8930    2.4690   -2.9300 c3        1 K00      0.066100
     16 O8          1.0440    3.5430   -2.5420 oh        1 K00     -0.601800
     17 C9          1.8540    2.2870   -4.4490 c3        1 K00      0.094400
     18 O9          2.3970    3.4250   -5.0970 oh        1 K00     -0.620800
     19 H2          3.5310    2.1310    1.0690 h1        1 K00      0.034700
     20 H5         -0.5190   -0.2050    0.8760 ho        1 K00      0.406000
     21 HA          1.3740   -0.8300   -0.4400 h1        1 K00      0.058700
     22 HB          1.5420    0.9620    2.1120 h1        1 K00      0.084700
     23 H6          1.5360    2.2800   -0.2870 h1        1 K00      0.066700
     24 H4          1.7390   -1.8330    1.8470 ho        1 K00      0.410000
     25 H3          3.8520    0.0930    2.4060 h1        1 K00      0.089700
     26 H7          0.2690    1.1440   -2.2460 h1        1 K00      0.090700
     27 HC          2.8160   -0.0340   -2.5950 ho        1 K00      0.434000
     28 H8          2.9500    2.6920   -2.6020 h1        1 K00      0.077700
     29 HD          1.2930    4.2920   -3.0990 ho        1 K00      0.404000
     30 H91C        0.7950    2.2290   -4.8140 h1        1 K00      0.060700
     31 H92C        2.4110    1.3590   -4.7400 h1        1 K00      0.060700
     32 H9          3.3250    3.4820   -4.8370 ho        1 K00      0.404000
@<TRIPOS>BOND
     1    1    2 1   
     2    1   20 1   
     3    2    3 1   
     4    2   12 1   
     5    2   21 1   
     6    3    4 1   
     7    3    5 1   
     8    3   22 1   
     9    4   24 1   
    10    5    6 1   
    11    5    7 1   
    12    5   25 1   
    13    7    8 1   
    14    7   11 1   
    15    7   19 1   
    16    8    9 1   
    17    8   10 1   
    18   11   12 1   
    19   12   13 1   
    20   12   23 1   
    21   13   14 1   
    22   13   15 1   
    23   13   26 1   
    24   14   27 1   
    25   15   16 1   
    26   15   17 1   
    27   15   28 1   
    28   16   29 1   
    29   17   18 1   
    30   17   30 1   
    31   17   31 1   
    32   18   32 1   
@<TRIPOS>SUBSTRUCTURE
     1 K00         1 TEMP              0 ****  ****    0 ROOT
