@<TRIPOS>MOLECULE
K01
   46    48     1     0     0
SMALL
bcc


@<TRIPOS>ATOM
      1 O21          0.0000     0.0000     0.0000 o          1 K01      -0.599100
      2 C15          1.2170     0.0000     0.0000 c          1 K01       0.604700
      3 C16          1.9500     0.0000     1.2680 cc         1 K01      -0.098700
      4 S17          3.6990     0.0080     1.4360 ss         1 K01      -0.222800
      5 C18          3.5840     0.0040     3.1380 cc         1 K01       0.007900
      6 C19          2.3050    -0.0030     3.5310 cd         1 K01      -0.146000
      7 C20          1.3820     0.0010     2.5120 cd         1 K01      -0.028000
      8 N14          1.8910    -0.0070    -1.1680 ns         1 K01       0.031900
      9 C13          1.1980    -0.0120    -2.3670 cc         1 K01       0.013500
     10 S12         -0.4980    -0.0060    -2.5050 ss         1 K01      -0.146800
     11 C7          -0.4400    -0.0200    -4.2600 cc         1 K01      -0.039400
     12 C6           0.8260    -0.0290    -4.6930 cd         1 K01      -0.061300
     13 C11          1.2090    -0.0430    -6.1640 c3         1 K01       0.051900
     14 C10         -0.0080    -0.4720    -6.9870 c3         1 K01      -0.029400
     15 C9          -1.2150     0.3790    -6.5790 c3         1 K01      -0.034400
     16 C8          -1.6550    -0.0230    -5.1680 c3         1 K01       0.080900
     17 C5           1.7840    -0.0190    -3.6020 cd         1 K01      -0.233600
     18 C4           3.2360    -0.0190    -3.8060 c          1 K01       0.628700
     19 O22          3.8390    -1.0730    -3.8850 o          1 K01      -0.639100
     20 N3           3.9020     1.1480    -3.9050 n          1 K01      -0.153800
     21 C2           5.3520     1.1480    -4.1080 c3         1 K01       0.044500
     22 C1           5.6580     1.1400    -5.6080 c3         1 K01      -0.022600
     23 C23          3.1760     2.4170    -3.8100 c3         1 K01       0.044500
     24 C24          3.1220     2.8660    -2.3490 c3         1 K01      -0.022600
     25 H18          4.4330     0.0040     3.8110 h4         1 K01       0.152000
     26 H19          2.0170    -0.0050     4.5750 ha         1 K01       0.126000
     27 H20          0.3110    -0.0030     2.6780 ha         1 K01       0.141000
     28 HN14         2.8900    -0.0670    -1.1680 hn         1 K01       0.184500
     29 H111         2.0180    -0.7450    -6.3210 hc         1 K01       0.023700
     30 H112         1.5190     0.9500    -6.4670 hc         1 K01       0.023700
     31 H101         0.1980    -0.3250    -8.0400 hc         1 K01       0.018700
     32 H102        -0.2220    -1.5170    -6.7970 hc         1 K01       0.018700
     33 H91         -0.9060     1.4170    -6.5550 hc         1 K01       0.020700
     34 H92         -2.0280     0.1620    -7.2620 hc         1 K01       0.020700
     35 H81         -2.0470    -1.0320    -5.2090 hc         1 K01       0.026700
     36 H82         -2.3530     0.7220    -4.8050 hc         1 K01       0.026700
     37 H21          5.7820     0.2670    -3.6480 h1         1 K01       0.031200
     38 H22          5.7800     2.0360    -3.6580 h1         1 K01       0.031200
     39 H11          6.7220     1.2720    -5.7600 hc         1 K01       0.010533
     40 H12          5.3450     0.1950    -6.0350 hc         1 K01       0.010533
     41 H13          5.1210     1.9490    -6.0900 hc         1 K01       0.010533
     42 H231         2.1680     2.2860    -4.1850 h1         1 K01       0.031200
     43 H232         3.6850     3.1700    -4.4000 h1         1 K01       0.031200
     44 H241         2.0900     2.9170    -2.0240 hc         1 K01       0.010533
     45 H242         3.6590     2.1540    -1.7330 hc         1 K01       0.010533
     46 H243         3.5800     3.8430    -2.2540 hc         1 K01       0.010533
@<TRIPOS>BOND
     1     1     2 2   
     2     2     3 1   
     3     2     8 1   
     4     3     4 1   
     5     3     7 2   
     6     4     5 1   
     7     5     6 2   
     8     5    25 1   
     9     6     7 1   
    10     6    26 1   
    11     7    27 1   
    12     8     9 1   
    13     8    28 1   
    14     9    10 1   
    15     9    17 2   
    16    10    11 1   
    17    11    12 2   
    18    11    16 1   
    19    12    13 1   
    20    12    17 1   
    21    13    14 1   
    22    13    29 1   
    23    13    30 1   
    24    14    15 1   
    25    14    31 1   
    26    14    32 1   
    27    15    16 1   
    28    15    33 1   
    29    15    34 1   
    30    16    35 1   
    31    16    36 1   
    32    17    18 1   
    33    18    19 2   
    34    18    20 1   
    35    20    21 1   
    36    20    23 1   
    37    21    22 1   
    38    21    37 1   
    39    21    38 1   
    40    22    39 1   
    41    22    40 1   
    42    22    41 1   
    43    23    24 1   
    44    23    42 1   
    45    23    43 1   
    46    24    44 1   
    47    24    45 1   
    48    24    46 1   
@<TRIPOS>SUBSTRUCTURE
     1 K01         1 TEMP              0 ****  ****    0 ROOT
