@<TRIPOS>MOLECULE
K02
   49    51     1     0     0
SMALL
bcc


@<TRIPOS>ATOM
      1 O1           0.0000     0.0000     0.0000 o          1 K02      -0.564100
      2 C13          1.2290     0.0000     0.0000 c          1 K02       0.626700
      3 C14          1.9860     0.0000     1.2640 cc         1 K02      -0.126700
      4 S2           3.6740     0.0460     1.1710 ss         1 K02      -0.185800
      5 C15          3.7820     0.0240     2.8800 cc         1 K02      -0.012100
      6 C16          2.5410    -0.0170     3.4750 cd         1 K02      -0.136000
      7 C17          1.4870    -0.0300     2.5170 cd         1 K02      -0.027000
      8 N2           2.0080     0.0360    -1.1940 ns         1 K02      -0.028100
      9 C12          1.5940     0.0780    -2.4980 cc         1 K02       0.026500
     10 S1          -0.0970     0.0860    -2.7650 ss         1 K02      -0.151800
     11 C6           0.1180     0.1430    -4.4530 cc         1 K02      -0.076400
     12 C5           1.4510     0.1490    -4.8210 cd         1 K02      -0.041300
     13 C11          1.8820     0.2130    -6.2540 c3         1 K02       0.055900
     14 C9           0.7320    -0.1550    -7.2190 c3         1 K02      -0.051700
     15 C10          1.1120     0.1860    -8.6580 c3         1 K02       0.010900
     16 C8          -0.5760     0.5560    -6.8130 c3         1 K02      -0.025400
     17 C7          -1.0360     0.1480    -5.4040 c3         1 K02       0.077900
     18 C4           2.3050     0.1150    -3.6780 cd         1 K02      -0.217600
     19 C3           3.7470     0.1200    -3.7110 c          1 K02       0.648700
     20 O2           4.3160     1.2270    -3.7020 o          1 K02      -0.622100
     21 N1           4.4440    -1.1080    -3.7680 n          1 K02      -0.181800
     22 C2           5.8970    -1.1710    -3.8190 c3         1 K02       0.049000
     23 C1           6.3870    -1.1580    -5.2280 c3         1 K02      -0.026100
     24 C18          3.7520    -2.3950    -3.7790 c3         1 K02       0.049000
     25 C19          3.5460    -2.9050    -2.3940 c3         1 K02      -0.026100
     26 H2           3.0000     0.0310    -1.0590 hn         1 K02       0.176500
     27 H17          0.5740    -0.5750     2.7230 ha         1 K02       0.140000
     28 H15          4.6050     0.5230     3.3770 h4         1 K02       0.155000
     29 H16          2.4140    -0.5180     4.4280 ha         1 K02       0.134000
     30 H7C1        -1.7500     0.8870    -5.0590 hc         1 K02       0.026200
     31 H7C2        -1.4260    -0.8610    -5.4600 hc         1 K02       0.026200
     32 H111         2.7020    -0.4790    -6.4050 hc         1 K02       0.025200
     33 H112         2.2180     1.2190    -6.4760 hc         1 K02       0.025200
     34 H9           0.5680    -1.2240    -7.1530 hc         1 K02       0.021700
     35 H101         2.0460    -0.3020    -8.9100 hc         1 K02       0.003367
     36 H102         1.2280     1.2590    -8.7560 hc         1 K02       0.003367
     37 H103         0.3330    -0.1550    -9.3280 hc         1 K02       0.003367
     38 H8C1        -0.3820     1.6220    -6.8000 hc         1 K02       0.021700
     39 H8C2        -1.3470     0.2520    -7.5120 hc         1 K02       0.021700
     40 H2C1         6.3090    -0.3190    -3.2930 h1         1 K02       0.026950
     41 H2C2         6.2300    -2.0820    -3.3360 h1         1 K02       0.026950
     42 H181         2.7890    -2.2770    -4.2610 h1         1 K02       0.026950
     43 H182         4.3430    -3.1110    -4.3370 h1         1 K02       0.026950
     44 H1C1         5.8750    -1.9270    -5.7950 hc         1 K02       0.010533
     45 H1C2         7.4530    -1.3480    -5.2410 hc         1 K02       0.010533
     46 H1C3         6.1870    -0.1900    -5.6710 hc         1 K02       0.010533
     47 H191         3.9240    -2.1820    -1.6820 hc         1 K02       0.010533
     48 H192         2.4880    -3.0630    -2.2210 hc         1 K02       0.010533
     49 H193         4.0750    -3.8430    -2.2720 hc         1 K02       0.010533
@<TRIPOS>BOND
     1     1     2 2   
     2     2     3 1   
     3     2     8 1   
     4     3     4 1   
     5     3     7 2   
     6     4     5 1   
     7     5     6 2   
     8     5    28 1   
     9     6     7 1   
    10     6    29 1   
    11     7    27 1   
    12     8     9 1   
    13     8    26 1   
    14     9    10 1   
    15     9    18 2   
    16    10    11 1   
    17    11    12 2   
    18    11    17 1   
    19    12    13 1   
    20    12    18 1   
    21    13    14 1   
    22    13    32 1   
    23    13    33 1   
    24    14    15 1   
    25    14    16 1   
    26    14    34 1   
    27    15    35 1   
    28    15    36 1   
    29    15    37 1   
    30    16    17 1   
    31    16    38 1   
    32    16    39 1   
    33    17    30 1   
    34    17    31 1   
    35    18    19 1   
    36    19    20 2   
    37    19    21 1   
    38    21    22 1   
    39    21    24 1   
    40    22    23 1   
    41    22    40 1   
    42    22    41 1   
    43    23    44 1   
    44    23    45 1   
    45    23    46 1   
    46    24    25 1   
    47    24    42 1   
    48    24    43 1   
    49    25    47 1   
    50    25    48 1   
    51    25    49 1   
@<TRIPOS>SUBSTRUCTURE
     1 K02         1 TEMP              0 ****  ****    0 ROOT
