@<TRIPOS>MOLECULE
molecule
   49    51     1     0     0
SMALL
bcc


@<TRIPOS>ATOM
      1 O1           0.0000     0.0000     0.0000 o          1 K02      -0.546100
      2 C13          1.2290     0.0000     0.0000 c          1 K02       0.707700
      3 C14          1.9860     0.0000     1.2640 cc         1 K02      -0.157700
      4 S2           3.6740     0.0460     1.1710 ss         1 K02      -0.042800
      5 C15          3.7820     0.0240     2.8800 cc         1 K02      -0.098100
      6 C16          2.5410    -0.0170     3.4750 cd         1 K02      -0.167000
      7 C17          1.4870    -0.0300     2.5170 cd         1 K02      -0.069000
      8 N2           2.0080     0.0360    -1.1940 ns         1 K02      -0.463100
      9 C12          1.5940     0.0780    -2.4980 cc         1 K02       0.105500
     10 S1          -0.0970     0.0860    -2.7650 ss         1 K02       0.025200
     11 C6           0.1180     0.1430    -4.4530 cc         1 K02      -0.138400
     12 C5           1.4510     0.1490    -4.8210 cd         1 K02      -0.045300
     13 C11          1.8820     0.2130    -6.2540 c3         1 K02      -0.008100
     14 C9           0.7320    -0.1550    -7.2190 c3         1 K02      -0.071700
     15 C10          1.1120     0.1860    -8.6580 c3         1 K02      -0.086100
     16 C8          -0.5760     0.5560    -6.8130 c3         1 K02      -0.072400
     17 C7          -1.0360     0.1480    -5.4040 c3         1 K02       0.000900
     18 C4           2.3050     0.1150    -3.6780 cd         1 K02      -0.216600
     19 C3           3.7470     0.1200    -3.7110 c          1 K02       0.702700
     20 O2           4.3160     1.2270    -3.7020 o          1 K02      -0.589100
     21 N1           4.4440    -1.1080    -3.7680 n          1 K02      -0.505800
     22 C2           5.8970    -1.1710    -3.8190 c3         1 K02       0.105500
     23 C1           6.3870    -1.1580    -5.2280 c3         1 K02      -0.117100
     24 C18          3.7520    -2.3950    -3.7790 c3         1 K02       0.105500
     25 C19          3.5460    -2.9050    -2.3940 c3         1 K02      -0.117100
     26 H2           3.0000     0.0310    -1.0590 hn         1 K02       0.316500
     27 H17          0.5740    -0.5750     2.7230 ha         1 K02       0.174000
     28 H15          4.6050     0.5230     3.3770 h4         1 K02       0.179000
     29 H16          2.4140    -0.5180     4.4280 ha         1 K02       0.165000
     30 H7C1        -1.7500     0.8870    -5.0590 hc         1 K02       0.053700
     31 H7C2        -1.4260    -0.8610    -5.4600 hc         1 K02       0.053700
     32 H111         2.7020    -0.4790    -6.4050 hc         1 K02       0.056700
     33 H112         2.2180     1.2190    -6.4760 hc         1 K02       0.056700
     34 H9           0.5680    -1.2240    -7.1530 hc         1 K02       0.045700
     35 H101         2.0460    -0.3020    -8.9100 hc         1 K02       0.035367
     36 H102         1.2280     1.2590    -8.7560 hc         1 K02       0.035367
     37 H103         0.3330    -0.1550    -9.3280 hc         1 K02       0.035367
     38 H8C1        -0.3820     1.6220    -6.8000 hc         1 K02       0.048700
     39 H8C2        -1.3470     0.2520    -7.5120 hc         1 K02       0.048700
     40 H2C1         6.3090    -0.3190    -3.2930 h1         1 K02       0.051200
     41 H2C2         6.2300    -2.0820    -3.3360 h1         1 K02       0.051200
     42 H181         2.7890    -2.2770    -4.2610 h1         1 K02       0.051200
     43 H182         4.3430    -3.1110    -4.3370 h1         1 K02       0.051200
     44 H1C1         5.8750    -1.9270    -5.7950 hc         1 K02       0.041033
     45 H1C2         7.4530    -1.3480    -5.2410 hc         1 K02       0.041033
     46 H1C3         6.1870    -0.1900    -5.6710 hc         1 K02       0.041033
     47 H191         3.9240    -2.1820    -1.6820 hc         1 K02       0.041033
     48 H192         2.4880    -3.0630    -2.2210 hc         1 K02       0.041033
     49 H193         4.0750    -3.8430    -2.2720 hc         1 K02       0.041033
@<TRIPOS>BOND
     1     1     2 2
     2     2     3 1
     3     3     4 1
     4     4     5 1
     5     5     6 2
     6     3     7 2
     7     6     7 1
     8     2     8 1
     9     8     9 1
    10     9    10 1
    11    10    11 1
    12    11    12 2
    13    12    13 1
    14    13    14 1
    15    14    15 1
    16    14    16 1
    17    11    17 1
    18    16    17 1
    19     9    18 2
    20    12    18 1
    21    18    19 1
    22    19    20 2
    23    19    21 1
    24    21    22 1
    25    22    23 1
    26    21    24 1
    27    24    25 1
    28     8    26 1
    29     7    27 1
    30     5    28 1
    31     6    29 1
    32    17    30 1
    33    17    31 1
    34    13    32 1
    35    13    33 1
    36    14    34 1
    37    15    35 1
    38    15    36 1
    39    15    37 1
    40    16    38 1
    41    16    39 1
    42    22    40 1
    43    22    41 1
    44    24    42 1
    45    24    43 1
    46    23    44 1
    47    23    45 1
    48    23    46 1
    49    25    47 1
    50    25    48 1
    51    25    49 1
@<TRIPOS>SUBSTRUCTURE
     1 K02         1 TEMP              0 ****  ****    0 ROOT
