@<TRIPOS>MOLECULE
molecule
   52    54     1     0     0
SMALL
bcc


@<TRIPOS>ATOM
      1 O12          0.0000     0.0000     0.0000 o          1 K03      -0.546100
      2 C11          1.2290     0.0000     0.0000 c          1 K03       0.707700
      3 C13          1.9880     0.0000     1.2620 cc         1 K03      -0.157700
      4 S17          3.6750     0.0450     1.1670 ss         1 K03      -0.042800
      5 C16          3.7850     0.0220     2.8770 cc         1 K03      -0.096100
      6 C15          2.5440    -0.0190     3.4730 cd         1 K03      -0.168000
      7 C14          1.4890    -0.0320     2.5150 cd         1 K03      -0.070000
      8 N10          2.0070     0.0380    -1.1960 ns         1 K03      -0.463100
      9 C9           1.5920     0.0810    -2.4990 cc         1 K03       0.106500
     10 S18         -0.0990     0.0890    -2.7650 ss         1 K03       0.021200
     11 C19          0.1150     0.1390    -4.4540 cc         1 K03      -0.136400
     12 C26          1.4460     0.1560    -4.8230 cd         1 K03      -0.043300
     13 C25          1.8840     0.1820    -6.2570 c3         1 K03      -0.004100
     14 C22          0.7460     0.6090    -7.2280 c3         1 K03      -0.063000
     15 C24          0.5740     2.1410    -7.2110 c3         1 K03      -0.083100
     16 C23          1.1290     0.1880    -8.6590 c3         1 K03      -0.083100
     17 C21         -0.5830    -0.0980    -6.8360 c3         1 K03      -0.066400
     18 C20         -1.0420     0.1980    -5.3970 c3         1 K03       0.001900
     19 C8           2.3010     0.1190    -3.6800 cd         1 K03      -0.218600
     20 C6           3.7440     0.1150    -3.7140 c          1 K03       0.703700
     21 O7           4.3130    -0.9900    -3.7480 o          1 K03      -0.590100
     22 N3           4.4400     1.3430    -3.6940 n          1 K03      -0.505800
     23 C4           5.8950     1.4100    -3.7110 c3         1 K03       0.105500
     24 C5           6.4150     1.4680    -5.1060 c3         1 K03      -0.117600
     25 C2           3.7490     2.6300    -3.6550 c3         1 K03       0.105500
     26 C1           3.5120     3.0710    -2.2510 c3         1 K03      -0.117600
     27 H10          2.9990     0.0310    -1.0620 hn         1 K03       0.316500
     28 H14          0.5770    -0.5800     2.7210 ha         1 K03       0.176000
     29 H16          4.6080     0.5210     3.3730 h4         1 K03       0.177000
     30 H15          2.4180    -0.5190     4.4260 ha         1 K03       0.166000
     31 H201        -1.7480    -0.5710    -5.1080 hc         1 K03       0.054700
     32 H202        -1.4390     1.2050    -5.3750 hc         1 K03       0.054700
     33 H251         2.2240    -0.8090    -6.5350 hc         1 K03       0.057200
     34 H252         2.7070     0.8790    -6.3570 hc         1 K03       0.057200
     35 H241         0.4000     2.4730    -6.1940 hc         1 K03       0.035533
     36 H242         1.4720     2.6090    -7.5950 hc         1 K03       0.035533
     37 H243        -0.2710     2.4160    -7.8300 hc         1 K03       0.035533
     38 H231         2.0620     0.6640    -8.9380 hc         1 K03       0.035533
     39 H232         1.2470    -0.8890    -8.6990 hc         1 K03       0.035533
     40 H233         0.3490     0.4910    -9.3460 hc         1 K03       0.035533
     41 H211        -1.3540     0.2710    -7.5020 hc         1 K03       0.047700
     42 H212        -0.4140    -1.1660    -6.9070 hc         1 K03       0.047700
     43 H4C1         6.2970     0.5330    -3.2180 h1         1 K03       0.051200
     44 H4C2         6.2160     2.2960    -3.1760 h1         1 K03       0.051200
     45 H2C1         2.7970     2.5370    -4.1640 h1         1 K03       0.051200
     46 H2C2         4.3520     3.3730    -4.1640 h1         1 K03       0.051200
     47 H5C1         7.4930     1.5660    -5.0860 hc         1 K03       0.041200
     48 H5C2         6.1450     0.5580    -5.6300 hc         1 K03       0.041200
     49 H5C3         5.9830     2.3200    -5.6170 hc         1 K03       0.041200
     50 H1C1         3.9400     4.0550    -2.1040 hc         1 K03       0.041200
     51 H1C2         3.9770     2.3700    -1.5690 hc         1 K03       0.041200
     52 H1C3         2.4460     3.1090    -2.0590 hc         1 K03       0.041200
@<TRIPOS>BOND
     1     1     2 2
     2     2     3 1
     3     3     4 1
     4     4     5 1
     5     5     6 2
     6     3     7 2
     7     6     7 1
     8     2     8 1
     9     8     9 1
    10     9    10 1
    11    10    11 1
    12    11    12 2
    13    12    13 1
    14    13    14 1
    15    14    15 1
    16    14    16 1
    17    14    17 1
    18    11    18 1
    19    17    18 1
    20     9    19 2
    21    12    19 1
    22    19    20 1
    23    20    21 2
    24    20    22 1
    25    22    23 1
    26    23    24 1
    27    22    25 1
    28    25    26 1
    29     8    27 1
    30     7    28 1
    31     5    29 1
    32     6    30 1
    33    18    31 1
    34    18    32 1
    35    13    33 1
    36    13    34 1
    37    15    35 1
    38    15    36 1
    39    15    37 1
    40    16    38 1
    41    16    39 1
    42    16    40 1
    43    17    41 1
    44    17    42 1
    45    23    43 1
    46    23    44 1
    47    25    45 1
    48    25    46 1
    49    24    47 1
    50    24    48 1
    51    24    49 1
    52    26    50 1
    53    26    51 1
    54    26    52 1
@<TRIPOS>SUBSTRUCTURE
     1 K03         1 TEMP              0 ****  ****    0 ROOT
