@<TRIPOS>MOLECULE
K03
   52    54     1     0     0
SMALL
bcc


@<TRIPOS>ATOM
      1 O12          0.0000     0.0000     0.0000 o          1 K03      -0.564100
      2 C11          1.2290     0.0000     0.0000 c          1 K03       0.626700
      3 C13          1.9880     0.0000     1.2620 cc         1 K03      -0.126700
      4 S17          3.6750     0.0450     1.1670 ss         1 K03      -0.185800
      5 C16          3.7850     0.0220     2.8770 cc         1 K03      -0.009100
      6 C15          2.5440    -0.0190     3.4730 cd         1 K03      -0.137000
      7 C14          1.4890    -0.0320     2.5150 cd         1 K03      -0.028000
      8 N10          2.0070     0.0380    -1.1960 ns         1 K03      -0.028100
      9 C9           1.5920     0.0810    -2.4990 cc         1 K03       0.028500
     10 S18         -0.0990     0.0890    -2.7650 ss         1 K03      -0.154800
     11 C19          0.1150     0.1390    -4.4540 cc         1 K03      -0.075400
     12 C26          1.4460     0.1560    -4.8230 cd         1 K03      -0.039300
     13 C25          1.8840     0.1820    -6.2570 c3         1 K03       0.057900
     14 C22          0.7460     0.6090    -7.2280 c3         1 K03      -0.064000
     15 C24          0.5740     2.1410    -7.2110 c3         1 K03       0.004900
     16 C23          1.1290     0.1880    -8.6590 c3         1 K03       0.004900
     17 C21         -0.5830    -0.0980    -6.8360 c3         1 K03      -0.021400
     18 C20         -1.0420     0.1980    -5.3970 c3         1 K03       0.075900
     19 C8           2.3010     0.1190    -3.6800 cd         1 K03      -0.220600
     20 C6           3.7440     0.1150    -3.7140 c          1 K03       0.649700
     21 O7           4.3130    -0.9900    -3.7480 o          1 K03      -0.622100
     22 N3           4.4400     1.3430    -3.6940 n          1 K03      -0.181800
     23 C4           5.8950     1.4100    -3.7110 c3         1 K03       0.049000
     24 C5           6.4150     1.4680    -5.1060 c3         1 K03      -0.026100
     25 C2           3.7490     2.6300    -3.6550 c3         1 K03       0.049000
     26 C1           3.5120     3.0710    -2.2510 c3         1 K03      -0.026100
     27 H10          2.9990     0.0310    -1.0620 hn         1 K03       0.176500
     28 H14          0.5770    -0.5800     2.7210 ha         1 K03       0.142000
     29 H16          4.6080     0.5210     3.3730 h4         1 K03       0.154000
     30 H15          2.4180    -0.5190     4.4260 ha         1 K03       0.135000
     31 H201        -1.7480    -0.5710    -5.1080 hc         1 K03       0.027200
     32 H202        -1.4390     1.2050    -5.3750 hc         1 K03       0.027200
     33 H251         2.2240    -0.8090    -6.5350 hc         1 K03       0.026700
     34 H252         2.7070     0.8790    -6.3570 hc         1 K03       0.026700
     35 H241         0.4000     2.4730    -6.1940 hc         1 K03       0.005867
     36 H242         1.4720     2.6090    -7.5950 hc         1 K03       0.005867
     37 H243        -0.2710     2.4160    -7.8300 hc         1 K03       0.005867
     38 H231         2.0620     0.6640    -8.9380 hc         1 K03       0.005867
     39 H232         1.2470    -0.8890    -8.6990 hc         1 K03       0.005867
     40 H233         0.3490     0.4910    -9.3460 hc         1 K03       0.005867
     41 H211        -1.3540     0.2710    -7.5020 hc         1 K03       0.021700
     42 H212        -0.4140    -1.1660    -6.9070 hc         1 K03       0.021700
     43 H4C1         6.2970     0.5330    -3.2180 h1         1 K03       0.026950
     44 H4C2         6.2160     2.2960    -3.1760 h1         1 K03       0.026950
     45 H2C1         2.7970     2.5370    -4.1640 h1         1 K03       0.026950
     46 H2C2         4.3520     3.3730    -4.1640 h1         1 K03       0.026950
     47 H5C1         7.4930     1.5660    -5.0860 hc         1 K03       0.010867
     48 H5C2         6.1450     0.5580    -5.6300 hc         1 K03       0.010867
     49 H5C3         5.9830     2.3200    -5.6170 hc         1 K03       0.010867
     50 H1C1         3.9400     4.0550    -2.1040 hc         1 K03       0.010867
     51 H1C2         3.9770     2.3700    -1.5690 hc         1 K03       0.010867
     52 H1C3         2.4460     3.1090    -2.0590 hc         1 K03       0.010867
@<TRIPOS>BOND
     1     1     2 2   
     2     2     3 1   
     3     2     8 1   
     4     3     4 1   
     5     3     7 2   
     6     4     5 1   
     7     5     6 2   
     8     5    29 1   
     9     6     7 1   
    10     6    30 1   
    11     7    28 1   
    12     8     9 1   
    13     8    27 1   
    14     9    10 1   
    15     9    19 2   
    16    10    11 1   
    17    11    12 2   
    18    11    18 1   
    19    12    13 1   
    20    12    19 1   
    21    13    14 1   
    22    13    33 1   
    23    13    34 1   
    24    14    15 1   
    25    14    16 1   
    26    14    17 1   
    27    15    35 1   
    28    15    36 1   
    29    15    37 1   
    30    16    38 1   
    31    16    39 1   
    32    16    40 1   
    33    17    18 1   
    34    17    41 1   
    35    17    42 1   
    36    18    31 1   
    37    18    32 1   
    38    19    20 1   
    39    20    21 2   
    40    20    22 1   
    41    22    23 1   
    42    22    25 1   
    43    23    24 1   
    44    23    43 1   
    45    23    44 1   
    46    24    47 1   
    47    24    48 1   
    48    24    49 1   
    49    25    26 1   
    50    25    45 1   
    51    25    46 1   
    52    26    50 1   
    53    26    51 1   
    54    26    52 1   
@<TRIPOS>SUBSTRUCTURE
     1 K03         1 TEMP              0 ****  ****    0 ROOT
