@<TRIPOS>MOLECULE
molecule
   25    26     1     0     0
SMALL
bcc


@<TRIPOS>ATOM
      1 N1           0.0000     0.0000     0.0000 nc         1 K04      -0.309000
      2 C4           5.1420     0.0010     3.1290 c3         1 K04       0.077100
      3 C5           3.6700     0.0010     2.8090 c          1 K04       0.632100
      4 C6           1.8970     0.0000     1.2270 cd         1 K04      -0.010800
      5 C7           1.3120     0.0000     0.0000 cc         1 K04       0.221200
      6 N            3.2600     0.0000     1.5240 ns         1 K04      -0.431100
      7 O            5.3310     0.0840     4.5470 os         1 K04      -0.378600
      8 C1           5.7830    -1.3210     2.6510 c3         1 K04      -0.106700
      9 C2           6.7800    -1.6370     3.7980 c3         1 K04      -0.113400
     10 C3           6.0030    -1.0930     5.0220 c3         1 K04       0.127400
     11 N2          -0.6170     0.0010     1.1230 nd         1 K04      -0.153100
     12 O1           2.8540     0.0010     3.7050 o          1 K04      -0.543100
     13 S            0.5750     0.0010     2.3330 ss         1 K04       0.174200
     14 H1           5.6290     0.8390     2.6460 h1         1 K04       0.078700
     15 H2           1.8900    -0.0000    -0.9160 h4         1 K04       0.047100
     16 H3           3.9330     0.0370     0.7840 hn         1 K04       0.336500
     17 H7           5.0350    -2.1000     2.5680 hc         1 K04       0.073700
     18 H8           6.9440    -2.7040     3.8860 hc         1 K04       0.063200
     19 H9           7.7120    -1.1010     3.6610 hc         1 K04       0.063200
     20 H10          5.2810    -1.8250     5.3630 h1         1 K04       0.058700
     21 H11          6.6920    -0.8350     5.8180 h1         1 K04       0.058700
     22 C            6.5210    -1.1190     1.3260 c3         1 K04      -0.089100
     23 H4           5.8310    -1.2550     0.5030 hc         1 K04       0.042033
     24 H5           6.9320    -0.1170     1.2910 hc         1 K04       0.042033
     25 H6           7.3250    -1.8410     1.2470 hc         1 K04       0.042033
@<TRIPOS>BOND
     1    11     1 2
     2    11    13 1
     3     1     5 1
     4    13     4 1
     5     5     4 2
     6     4     6 1
     7    12     3 2
     8     6     3 1
     9     3     2 1
    10     2     7 1
    11     2     8 1
    12     7    10 1
    13    22     8 1
    14     8     9 1
    15    10     9 1
    16     2    14 1
    17     5    15 1
    18     6    16 1
    19    22    23 1
    20    22    24 1
    21    22    25 1
    22     8    17 1
    23     9    18 1
    24     9    19 1
    25    10    20 1
    26    10    21 1
@<TRIPOS>SUBSTRUCTURE
     1 K04         1 TEMP              0 ****  ****    0 ROOT
