@<TRIPOS>MOLECULE
molecule
   41    43     1     0     0
SMALL
bcc


@<TRIPOS>ATOM
      1 N1           0.0000     0.0000     0.0000 n2         1 K05      -0.368300
      2 N2           1.3540     0.0000     0.0000 ns         1 K05      -0.354900
      3 C3           2.0140     0.0000     1.2140 c          1 K05       0.685700
      4 O3           1.4620     0.0000     2.3120 o          1 K05      -0.534100
      5 C1'          3.4980     0.0210     1.1440 ca         1 K05      -0.148600
      6 C2'          4.2060     0.5730     2.1920 ca         1 K05      -0.098000
      7 C3'          5.5990     0.5930     2.1260 ca         1 K05       0.083100
      8 C4'          6.2530     0.0620     1.0130 ca         1 K05       0.111100
      9 C5'          5.5130    -0.4890    -0.0330 ca         1 K05      -0.154000
     10 C6'          4.1190    -0.5090     0.0330 ca         1 K05      -0.108000
     11 OH3          7.6120     0.0760     0.9370 oh         1 K05      -0.511100
     12 OH4          6.3110     1.1340     3.1540 oh         1 K05      -0.506100
     13 C11         -0.5370     0.0350    -1.1820 ce         1 K05       0.351800
     14 C12         -1.9850     0.0420    -1.3840 ca         1 K05      -0.141900
     15 C13         -2.7770     0.6310    -0.3980 ca         1 K05       0.149100
     16 O13         -2.2190     1.1830     0.7170 os         1 K05      -0.329900
     17 C14         -4.1610     0.6640    -0.5420 ca         1 K05      -0.150000
     18 C15         -4.7580     0.1070    -1.6740 ca         1 K05      -0.097000
     19 C25         -3.9770    -0.4900    -2.6760 ca         1 K05      -0.044000
     20 C16         -4.5620    -1.0550    -3.8220 ca         1 K05      -0.109000
     21 C17         -3.7700    -1.6440    -4.8080 ca         1 K05      -0.131000
     22 C18         -2.3860    -1.6770    -4.6640 ca         1 K05      -0.116000
     23 C19         -1.7890    -1.1210    -3.5320 ca         1 K05      -0.128000
     24 C29         -2.5700    -0.5230    -2.5300 ca         1 K05      -0.002000
     25 C10         -1.8660     2.5620     0.6490 c3         1 K05       0.139700
     26 HN2          1.8540     0.2080    -0.8410 hn         1 K05       0.306500
     27 H2'          3.6890     0.9820     3.0510 ha         1 K05       0.170000
     28 H5'          6.0200    -0.9010    -0.8970 ha         1 K05       0.147000
     29 H6'          3.5350    -0.9350    -0.7740 ha         1 K05       0.139000
     30 HOH3         7.9500    -0.7660     1.1930 ho         1 K05       0.429000
     31 HOH4         6.2150     2.0720     3.1420 ho         1 K05       0.425000
     32 H112         0.1080     0.0610    -2.0530 h4         1 K05      -0.017200
     33 H14         -4.7740     1.1220     0.2240 ha         1 K05       0.147000
     34 H15         -5.8360     0.1360    -1.7810 ha         1 K05       0.136000
     35 H16         -5.6380    -1.0330    -3.9410 ha         1 K05       0.133000
     36 H17         -4.2330    -2.0770    -5.6870 ha         1 K05       0.133000
     37 H18         -1.7720    -2.1350    -5.4300 ha         1 K05       0.132000
     38 H19         -0.7110    -1.1490    -3.4260 ha         1 K05       0.129000
     39 H101        -1.5710     2.8110    -0.3630 h1         1 K05       0.034367
     40 H102        -1.0410     2.7580     1.3230 h1         1 K05       0.034367
     41 H103        -2.7180     3.1680     0.9360 h1         1 K05       0.034367
@<TRIPOS>BOND
     1     1    13 2
     2     1     2 1
     3     2     3 1
     4     2    26 1
     5     3     4 2
     6     3     5 1
     7     5     6 ar
     8     5    10 ar
     9     6     7 ar
    10     6    27 1
    11     7    12 1
    12     7     8 ar
    13     8     9 ar
    14     8    11 1
    15     9    10 ar
    16     9    28 1
    17    10    29 1
    18    11    30 1
    19    12    31 1
    20    13    14 1
    21    13    32 1
    22    14    15 ar
    23    14    24 ar
    24    15    17 ar
    25    15    16 1
    26    16    25 1
    27    17    18 ar
    28    17    33 1
    29    18    19 ar
    30    18    34 1
    31    19    20 ar
    32    19    24 ar
    33    20    21 ar
    34    20    35 1
    35    21    22 ar
    36    21    36 1
    37    22    23 ar
    38    22    37 1
    39    23    24 ar
    40    23    38 1
    41    25    39 1
    42    25    40 1
    43    25    41 1
@<TRIPOS>SUBSTRUCTURE
     1 K05         1 TEMP              0 ****  ****    0 ROOT
