@<TRIPOS>MOLECULE
K05
   41    44     1     0     0
SMALL
bcc


@<TRIPOS>ATOM
      1 N1           0.0000     0.0000     0.0000 n2         1 K05       0.063000
      2 N2           1.3540     0.0000     0.0000 ns         1 K05       0.097000
      3 C3           2.0140     0.0000     1.2140 c2         1 K05       0.267000
      4 O3           1.4620     0.0000     2.3120 o          1 K05      -0.326000
      5 C1'          3.4980     0.0210     1.1440 ca         1 K05      -0.153000
      6 C2'          4.2060     0.5730     2.1920 ca         1 K05      -0.071000
      7 C3'          5.5990     0.5930     2.1260 ca         1 K05       0.047000
      8 C4'          6.2530     0.0620     1.0130 ca         1 K05       0.078000
      9 C5'          5.5130    -0.4890    -0.0330 ca         1 K05      -0.136000
     10 C6'          4.1190    -0.5090     0.0330 ca         1 K05      -0.079000
     11 OH3          7.6120     0.0760     0.9370 oh         1 K05      -0.243000
     12 OH4          6.3110     1.1340     3.1540 oh         1 K05      -0.239000
     13 C11         -0.5370     0.0350    -1.1820 c2         1 K05      -0.570000
     14 C12         -1.9850     0.0420    -1.3840 c3         1 K05      -0.058000
     15 C13         -2.7770     0.6310    -0.3980 c2         1 K05       0.079000
     16 O13         -2.2190     1.1830     0.7170 os         1 K05      -0.205000
     17 C14         -4.1610     0.6640    -0.5420 c2         1 K05      -0.132000
     18 C15         -4.7580     0.1070    -1.6740 c2         1 K05      -0.053000
     19 C25         -3.9770    -0.4900    -2.6760 ca         1 K05      -0.050000
     20 C16         -4.5620    -1.0550    -3.8220 ca         1 K05      -0.087000
     21 C17         -3.7700    -1.6440    -4.8080 ca         1 K05      -0.096000
     22 C18         -2.3860    -1.6770    -4.6640 ca         1 K05      -0.094000
     23 C19         -1.7890    -1.1210    -3.5320 ca         1 K05      -0.086000
     24 C29         -2.5700    -0.5230    -2.5300 ca         1 K05      -0.008000
     25 C10         -1.8660     2.5620     0.6490 c3         1 K05       0.066000
     26 HN2          1.8540     0.2090    -0.8410 hn         1 K05       0.105000
     27 H2'          3.6890     0.9820     3.0510 ha         1 K05       0.137000
     28 H5'          6.0200    -0.9010    -0.8970 ha         1 K05       0.118000
     29 H6'          3.5350    -0.9350    -0.7740 ha         1 K05       0.113000
     30 HOH3         7.9460    -0.7890     1.1120 ho         1 K05       0.208000
     31 HOH4         6.1920     2.0700     3.1600 ho         1 K05       0.206000
     32 H112        -1.1840    -0.8150    -1.0020 DU         1 K05       0.321000
     33 H14         -4.7740     1.1220     0.2240 ha         1 K05       0.120000
     34 H15         -5.8360     0.1360    -1.7810 ha         1 K05       0.107000
     35 H16         -5.6380    -1.0330    -3.9410 ha         1 K05       0.106000
     36 H17         -4.2330    -2.0770    -5.6870 ha         1 K05       0.104000
     37 H18         -1.7720    -2.1350    -5.4300 ha         1 K05       0.105000
     38 H19         -0.7110    -1.1490    -3.4260 ha         1 K05       0.133000
     39 H101        -2.7330     3.1690     0.8810 h1         1 K05       0.034000
     40 H102        -1.5180     2.7980    -0.3500 h1         1 K05       0.034000
     41 H103        -1.0790     2.7690     1.3640 h1         1 K05       0.034000
@<TRIPOS>BOND
     1     1     2 1   
     2     1    13 1   
     3     2     3 1   
     4     2    26 1   
     5     3     4 1   
     6     3     5 1   
     7     5     6 1   
     8     5    10 1   
     9     6     7 1   
    10     6    27 1   
    11     7     8 1   
    12     7    12 1   
    13     8     9 1   
    14     8    11 1   
    15     9    10 1   
    16     9    28 1   
    17    10    29 1   
    18    11    30 1   
    19    12    31 1   
    20    13    14 1   
    21    13    32 1   
    22    14    15 1   
    23    14    24 1   
    24    14    32 1   
    25    15    16 1   
    26    15    17 1   
    27    16    25 1   
    28    17    18 1   
    29    17    33 1   
    30    18    19 1   
    31    18    34 1   
    32    19    20 1   
    33    19    24 1   
    34    20    21 1   
    35    20    35 1   
    36    21    22 1   
    37    21    36 1   
    38    22    23 1   
    39    22    37 1   
    40    23    24 1   
    41    23    38 1   
    42    25    39 1   
    43    25    40 1   
    44    25    41 1   
@<TRIPOS>SUBSTRUCTURE
     1 K05         1 TEMP              0 ****  ****    0 ROOT
