@<TRIPOS>MOLECULE
molecule
   29    30     1     0     0
SMALL
bcc


@<TRIPOS>ATOM
      1 N1           0.0000     0.0000     0.0000 nb         1 K07      -0.767000
      2 C4           3.4750     2.7990    -4.8460 c3         1 K07       0.132400
      3 C5           3.9730     1.8000    -2.7780 c3         1 K07       0.141400
      4 C6           1.3290     0.0000     0.0000 ca         1 K07       0.642200
      5 C7          -0.6730     0.0010     1.1330 ca         1 K07       0.686900
      6 C8           1.2570     0.0020     2.3850 ca         1 K07       0.464200
      7 N            2.0340    -0.0020    -1.1940 nh         1 K07      -0.717300
      8 C            1.8660    -1.2770    -1.9030 c3         1 K07       0.160100
      9 O            4.5250     2.4200    -3.9500 os         1 K07      -0.423600
     10 C1           1.6360     1.1300    -2.0400 c3         1 K07       0.177800
     11 C2           2.5980     1.2440    -3.2250 c3         1 K07      -0.108700
     12 C3           2.1390     2.3490    -4.2150 c3         1 K07      -0.115400
     13 C9           2.0050     0.0000     1.2240 ca         1 K07      -0.200200
     14 N2          -0.0660     0.0020     2.3020 nb         1 K07      -0.730000
     15 Cl           3.7400    -0.0000     1.2830 cl         1 K07      -0.065400
     16 H2           3.4740     3.8740    -4.9760 h1         1 K07       0.044200
     17 H3           4.6130     0.9930    -2.4440 h1         1 K07       0.054700
     18 H4           3.8420     2.5350    -1.9920 h1         1 K07       0.054700
     19 H5          -1.7560     0.0010     1.1010 h5         1 K07       0.064100
     20 H6           1.7460     0.0030     3.3520 h4         1 K07       0.044100
     21 H7           1.0390    -1.1970    -2.5980 h1         1 K07       0.044367
     22 H8           1.6620    -2.0640    -1.1870 h1         1 K07       0.044367
     23 H9           2.7730    -1.5100    -2.4470 h1         1 K07       0.044367
     24 H10          1.6690     2.0440    -1.4600 h1         1 K07       0.052200
     25 H11          0.6290     0.9710    -2.4070 h1         1 K07       0.052200
     26 H12          2.7130     0.2940    -3.7340 hc         1 K07       0.069700
     27 H13          1.6700     3.1690    -3.6840 hc         1 K07       0.055200
     28 H14          1.4780     1.9390    -4.9680 hc         1 K07       0.055200
     29 H1           3.6120     2.3070    -5.8010 h1         1 K07       0.044200
@<TRIPOS>BOND
     1    14     5 ar
     2    14     6 ar
     3     5     1 ar
     4     6    13 ar
     5     1     4 ar
     6    13     4 ar
     7    13    15 1
     8     4     7 1
     9     7    10 1
    10     7     8 1
    11    10    11 1
    12    11    12 1
    13    11     3 1
    14    12     2 1
    15     3     9 1
    16     2     9 1
    17     2    29 1
    18     2    16 1
    19     3    17 1
    20     3    18 1
    21     5    19 1
    22     6    20 1
    23     8    21 1
    24     8    22 1
    25     8    23 1
    26    10    24 1
    27    10    25 1
    28    11    26 1
    29    12    27 1
    30    12    28 1
@<TRIPOS>SUBSTRUCTURE
     1 K07         1 TEMP              0 ****  ****    0 ROOT
