@<TRIPOS>MOLECULE
K07
   29    30     1     0     0
SMALL
bcc


@<TRIPOS>ATOM
      1 N1           0.0000     0.0000     0.0000 nb         1 K07      -0.649000
      2 C4           3.4750     2.7990    -4.8460 c3         1 K07       0.215400
      3 C5           3.9730     1.8000    -2.7780 c3         1 K07       0.219400
      4 C6           1.3290     0.0000     0.0000 ca         1 K07       0.521200
      5 C7          -0.6730     0.0010     1.1330 ca         1 K07       0.636900
      6 C8           1.2570     0.0020     2.3850 ca         1 K07       0.445200
      7 N            2.0340    -0.0020    -1.1940 nh         1 K07      -0.516300
      8 C            1.8660    -1.2770    -1.9030 c3         1 K07       0.181100
      9 O            4.5250     2.4200    -3.9500 os         1 K07      -0.415600
     10 C1           1.6360     1.1300    -2.0400 c3         1 K07       0.160800
     11 C2           2.5980     1.2440    -3.2250 c3         1 K07      -0.095700
     12 C3           2.1390     2.3490    -4.2150 c3         1 K07      -0.058400
     13 C9           2.0050     0.0000     1.2240 ca         1 K07      -0.270200
     14 N2          -0.0660     0.0020     2.3020 nb         1 K07      -0.620000
     15 Cl           3.7400    -0.0000     1.2830 cl         1 K07       0.037600
     16 H2           3.4740     3.8740    -4.9760 h1         1 K07       0.003200
     17 H3           4.6130     0.9930    -2.4440 h1         1 K07       0.012700
     18 H4           3.8420     2.5350    -1.9920 h1         1 K07       0.012700
     19 H5          -1.7560     0.0010     1.1010 h5         1 K07       0.003100
     20 H6           1.7460     0.0030     3.3520 h4         1 K07      -0.003900
     21 H7           1.0390    -1.1970    -2.5980 h1         1 K07       0.010700
     22 H8           1.6620    -2.0640    -1.1870 h1         1 K07       0.010700
     23 H9           2.7730    -1.5100    -2.4470 h1         1 K07       0.010700
     24 H10          1.6690     2.0440    -1.4600 h1         1 K07       0.024200
     25 H11          0.6290     0.9710    -2.4070 h1         1 K07       0.024200
     26 H12          2.7130     0.2940    -3.7340 hc         1 K07       0.047700
     27 H13          1.6700     3.1690    -3.6840 hc         1 K07       0.024200
     28 H14          1.4780     1.9390    -4.9680 hc         1 K07       0.024200
     29 H1           3.6120     2.3070    -5.8010 h1         1 K07       0.003200
@<TRIPOS>BOND
     1     1     4 ar  
     2     1     5 ar  
     3     2     9 1   
     4     2    12 1   
     5     2    16 1   
     6     2    29 1   
     7     3     9 1   
     8     3    11 1   
     9     3    17 1   
    10     3    18 1   
    11     4     7 1   
    12     4    13 ar  
    13     5    14 ar  
    14     5    19 1   
    15     6    13 ar  
    16     6    14 ar  
    17     6    20 1   
    18     7     8 1   
    19     7    10 1   
    20     8    21 1   
    21     8    22 1   
    22     8    23 1   
    23    10    11 1   
    24    10    24 1   
    25    10    25 1   
    26    11    12 1   
    27    11    26 1   
    28    12    27 1   
    29    12    28 1   
    30    13    15 1   
@<TRIPOS>SUBSTRUCTURE
     1 K07         1 TEMP              0 ****  ****    0 ROOT
