@<TRIPOS>MOLECULE
molecule
   51    54     1     0     0
SMALL
bcc


@<TRIPOS>ATOM
      1 C01          0.0000     0.0000     0.0000 c3         1 K08      -0.035900
      2 C02          1.5060     0.0000     0.0000 cc         1 K08      -0.091200
      3 C03          2.2900     0.0000     1.0940 cd         1 K08      -0.071400
      4 C04          3.7000    -0.0000     0.6970 ca         1 K08      -0.063800
      5 C05          3.7590    -0.0000    -0.7130 ca         1 K08      -0.070800
      6 C06          2.3610    -0.0070    -1.1940 cc         1 K08      -0.034200
      7 C07          1.9460    -0.0130    -2.4950 cf         1 K08      -0.046200
      8 C08          2.9130    -0.2570    -3.5720 ca         1 K08      -0.084800
      9 C09          3.8570    -1.2840    -3.4510 ca         1 K08      -0.104000
     10 C10          4.7610    -1.5070    -4.4680 ca         1 K08      -0.133500
     11 C11          4.7360    -0.7190    -5.6050 ca         1 K08      -0.066300
     12 C12          3.8060     0.2980    -5.7330 ca         1 K08      -0.133500
     13 C13          2.8910     0.5300    -4.7290 ca         1 K08      -0.104000
     14 C14          5.7280    -0.9700    -6.7110 c3         1 K08      -0.033400
     15 C15          4.9790    -1.3110    -8.0020 c3         1 K08      -0.085100
     16 C16          6.5750     0.2850    -6.9310 c3         1 K08      -0.085100
     17 C17          4.9900    -0.0010    -1.3570 ca         1 K08      -0.110000
     18 C18          6.1540    -0.0000    -0.6130 ca         1 K08      -0.130000
     19 C19          6.1020    -0.0000     0.7720 ca         1 K08      -0.125000
     20 C20          4.8910     0.0010     1.4300 ca         1 K08      -0.107000
     21 C21          1.7910     0.0010     2.5160 c3         1 K08      -0.020200
     22 C22          1.7400    -1.4350     3.0400 c3         1 K08      -0.093700
     23 C23          1.2410    -1.4330     4.4620 cc         1 K08       0.346800
     24 N24          1.7390    -0.7530     5.4660 nd         1 K08      -0.383000
     25 N25          1.0380    -1.0180     6.5130 nd         1 K08      -0.032000
     26 N26          0.1050    -1.8500     6.2040 nc         1 K08      -0.230800
     27 N27          0.1940    -2.1270     4.9470 na         1 K08      -0.123400
     28 H1          -0.3610     0.6260     0.8070 hc         1 K08       0.044033
     29 H2          -0.3610    -1.0120     0.1390 hc         1 K08       0.044033
     30 H3          -0.3610     0.3860    -0.9460 hc         1 K08       0.044033
     31 H4           0.8860    -0.0120    -2.7190 ha         1 K08       0.140000
     32 H5           3.8770    -1.9020    -2.5610 ha         1 K08       0.140000
     33 H6           5.4920    -2.3000    -4.3760 ha         1 K08       0.135000
     34 H7           3.7920     0.9080    -6.6280 ha         1 K08       0.135000
     35 H8           2.1630     1.3270    -4.8300 ha         1 K08       0.140000
     36 H9           6.3720    -1.7970    -6.4380 hc         1 K08       0.055700
     37 H10          5.6790    -1.6900    -8.7370 hc         1 K08       0.037033
     38 H11          4.4980    -0.4200    -8.3870 hc         1 K08       0.037033
     39 H12          4.2290    -2.0650    -7.7960 hc         1 K08       0.037033
     40 H13          5.9620     1.0610    -7.3720 hc         1 K08       0.037033
     41 H14          6.9650     0.6280    -5.9800 hc         1 K08       0.037033
     42 H15          7.3980     0.0530    -7.5960 hc         1 K08       0.037033
     43 H16          5.0380    -0.0010    -2.4390 ha         1 K08       0.151000
     44 H17          7.1130    -0.0010    -1.1160 ha         1 K08       0.131000
     45 H18          7.0230     0.0000     1.3420 ha         1 K08       0.131000
     46 H19          4.8610     0.0010     2.5130 ha         1 K08       0.134000
     47 H20          2.4620     0.5870     3.1330 hc         1 K08       0.065700
     48 H21          0.7990     0.4340     2.5510 hc         1 K08       0.065700
     49 H22          1.0690    -2.0200     2.4230 hc         1 K08       0.066700
     50 H23          2.7320    -1.8670     3.0060 hc         1 K08       0.066700
     51 H24         -0.4000    -2.7450     4.4310 hn         1 K08       0.341700
@<TRIPOS>BOND
     1    21    22 1
     2    21     3 1
     3    20    19 ar
     4    20     4 ar
     5    22    23 1
     6    19    18 ar
     7     3     4 1
     8     3     2 2
     9     4     5 ar
    10    18    17 ar
    11     2     1 1
    12     2     6 1
    13    23    27 1
    14    23    24 2
    15     5    17 ar
    16     5     6 1
    17    27    26 1
    18     6     7 2
    19    24    25 1
    20    13    12 ar
    21    13     8 ar
    22     7     8 1
    23    26    25 2
    24    12    11 ar
    25     8     9 ar
    26    11    14 1
    27    11    10 ar
    28     9    10 ar
    29    16    14 1
    30    15    14 1
    31     1    28 1
    32     1    29 1
    33     1    30 1
    34     7    31 1
    35     9    32 1
    36    10    33 1
    37    12    34 1
    38    13    35 1
    39    14    36 1
    40    15    37 1
    41    15    38 1
    42    15    39 1
    43    16    40 1
    44    16    41 1
    45    16    42 1
    46    17    43 1
    47    18    44 1
    48    19    45 1
    49    20    46 1
    50    21    47 1
    51    21    48 1
    52    22    49 1
    53    22    50 1
    54    27    51 1
@<TRIPOS>SUBSTRUCTURE
     1 K08         1 TEMP              0 ****  ****    0 ROOT
