@<TRIPOS>MOLECULE
K08
   51    54     1     0     0
SMALL
bcc


@<TRIPOS>ATOM
      1 C01         0.0780   -0.0010   -0.3460 c3        1 K08     -0.053900
      2 C02         1.5180   -0.0680   -0.0760 cc        1 K08     -0.072200
      3 C03         2.1580   -0.0300    1.1340 cd        1 K08     -0.076400
      4 C04         3.6100   -0.1140    0.9070 ca        1 K08     -0.061800
      5 C05         3.8340   -0.2150   -0.5070 ca        1 K08     -0.065800
      6 C06         2.5210   -0.1930   -1.1740 cc        1 K08     -0.028200
      7 C07         2.1990   -0.2460   -2.4750 cf        1 K08     -0.054200
      8 C08         3.0970   -0.4050   -3.6090 ca        1 K08     -0.073800
      9 C09         3.9110   -1.5370   -3.7430 ca        1 K08     -0.114500
     10 C10         4.7160   -1.6960   -4.8690 ca        1 K08     -0.129000
     11 C11         4.7290   -0.7260   -5.8780 ca        1 K08     -0.066300
     12 C12         3.9150    0.4060   -5.7420 ca        1 K08     -0.129000
     13 C13         3.1020    0.5630   -4.6240 ca        1 K08     -0.114500
     14 C14         5.6010   -0.9050   -7.0800 c3        1 K08     -0.025400
     15 C15         4.7710   -0.9830   -8.3480 c3        1 K08     -0.088100
     16 C16         6.6240    0.2100   -7.1830 c3        1 K08     -0.088100
     17 C17         5.1240   -0.2860   -0.9990 ca        1 K08     -0.100000
     18 C18         6.1960   -0.2660   -0.0940 ca        1 K08     -0.134000
     19 C19         5.9760   -0.1720    1.2760 ca        1 K08     -0.126000
     20 C20         4.6730   -0.0930    1.7910 ca        1 K08     -0.117000
     21 C21         1.5680    0.0970    2.4790 c3        1 K08     -0.020200
     22 C22         1.5700   -1.2430    3.1980 c3        1 K08     -0.106700
     23 C23         1.0300   -1.1330    4.5750 cc        1 K08      0.395800
     24 N24         0.2850   -0.1460    5.1610 nd        1 K08     -0.377000
     25 N25         0.0390   -0.5350    6.4110 nd        1 K08     -0.048000
     26 N26         0.5540   -1.6770    6.6840 nc        1 K08     -0.195800
     27 N27         1.1870   -2.1090    5.5830 na        1 K08     -0.193400
     28 H1         -0.1570    0.8950   -0.9750 hc        1 K08      0.049367
     29 H2         -0.5130    0.0690    0.6000 hc        1 K08      0.049367
     30 H3         -0.2560   -0.9140   -0.9030 hc        1 K08      0.049367
     31 H4          1.1320   -0.1570   -2.7610 ha        1 K08      0.134000
     32 H5          3.9090   -2.3050   -2.9550 ha        1 K08      0.138000
     33 H6          5.3460   -2.5940   -4.9620 ha        1 K08      0.134500
     34 H7          3.9180    1.1760   -6.5280 ha        1 K08      0.134500
     35 H8          2.4630    1.4540   -4.5310 ha        1 K08      0.138000
     36 H9          6.1620   -1.8800   -6.9750 hc        1 K08      0.051700
     37 H10         4.2060   -0.0330   -8.5070 hc        1 K08      0.037200
     38 H11         5.4360   -1.1520   -9.2290 hc        1 K08      0.037200
     39 H12         4.0400   -1.8240   -8.2840 hc        1 K08      0.037200
     40 H13         6.1190    1.1990   -7.3040 hc        1 K08      0.037200
     41 H14         7.2550    0.2460   -6.2620 hc        1 K08      0.037200
     42 H15         7.2870    0.0400   -8.0650 hc        1 K08      0.037200
     43 H16         5.3140   -0.3540   -2.0810 ha        1 K08      0.146000
     44 H17         7.2240   -0.3220   -0.4800 ha        1 K08      0.132000
     45 H18         6.8300   -0.1550    1.9690 ha        1 K08      0.131000
     46 H19         4.5070   -0.0070    2.8740 ha        1 K08      0.132000
     47 H20         2.1620    0.8430    3.0760 hc        1 K08      0.071200
     48 H21         0.5170    0.4880    2.4110 hc        1 K08      0.071200
     49 H22         2.6200   -1.6420    3.2370 hc        1 K08      0.070700
     50 H23         0.9430   -1.9810    2.6270 hc        1 K08      0.070700
     51 H24         1.6690   -2.9760    5.5460 hn        1 K08      0.331700
@<TRIPOS>BOND
     1    1    2 1   
     2    1   28 1   
     3    1   29 1   
     4    1   30 1   
     5    2    3 2   
     6    2    6 1   
     7    3    4 1   
     8    3   21 1   
     9    4    5 ar  
    10    4   20 ar  
    11    5    6 1   
    12    5   17 ar  
    13    6    7 2   
    14    7    8 1   
    15    7   31 1   
    16    8    9 ar  
    17    8   13 ar  
    18    9   10 ar  
    19    9   32 1   
    20   10   11 ar  
    21   10   33 1   
    22   11   12 ar  
    23   11   14 1   
    24   12   13 ar  
    25   12   34 1   
    26   13   35 1   
    27   14   15 1   
    28   14   16 1   
    29   14   36 1   
    30   15   37 1   
    31   15   38 1   
    32   15   39 1   
    33   16   40 1   
    34   16   41 1   
    35   16   42 1   
    36   17   18 ar  
    37   17   43 1   
    38   18   19 ar  
    39   18   44 1   
    40   19   20 ar  
    41   19   45 1   
    42   20   46 1   
    43   21   22 1   
    44   21   47 1   
    45   21   48 1   
    46   22   23 1   
    47   22   49 1   
    48   22   50 1   
    49   23   24 2   
    50   23   27 1   
    51   24   25 1   
    52   25   26 2   
    53   26   27 1   
    54   27   51 1   
@<TRIPOS>SUBSTRUCTURE
     1 K08         1 TEMP              0 ****  ****    0 ROOT
