@<TRIPOS>MOLECULE
molecule
   51    54     1     0     0
SMALL
bcc


@<TRIPOS>ATOM
      1 C01          0.0000     0.0000     0.0000 c3         1 K09      -0.037900
      2 C02          1.5060     0.0000     0.0000 cc         1 K09      -0.081200
      3 C03          2.2900     0.0000     1.0940 cd         1 K09      -0.076400
      4 C04          3.7010    -0.0060     0.6970 ca         1 K09      -0.036800
      5 C05          3.7590    -0.0080    -0.7130 ca         1 K09      -0.086800
      6 C06          2.3620    -0.0050    -1.1940 cc         1 K09      -0.038200
      7 C07          1.9470    -0.0110    -2.4940 cf         1 K09      -0.040200
      8 C08          2.9130     0.2210    -3.5740 ca         1 K09      -0.087800
      9 C09          2.8950    -0.5830    -4.7200 ca         1 K09      -0.105000
     10 C10          3.8050    -0.3590    -5.7300 ca         1 K09      -0.133500
     11 C11          4.7380     0.6590    -5.6130 ca         1 K09      -0.064300
     12 C12          4.7630     1.4580    -4.4840 ca         1 K09      -0.133500
     13 C13          3.8550     1.2510    -3.4670 ca         1 K09      -0.105000
     14 C14          5.7290     0.8960    -6.7220 c3         1 K09      -0.034400
     15 C15          5.5540     2.3150    -7.2670 c3         1 K09      -0.085100
     16 C16          7.1510     0.7300    -6.1790 c3         1 K09      -0.085100
     17 C17          4.9900    -0.0140    -1.3580 ca         1 K09      -0.085000
     18 C18          6.1550    -0.0150    -0.6160 ca         1 K09      -0.171000
     19 C19          6.1050    -0.0120     0.7710 ca         1 K09       0.136900
     20 C20          4.8910    -0.0080     1.4310 ca         1 K09      -0.150000
     21 F21          7.2530    -0.0150     1.4830 f          1 K09      -0.139900
     22 C22          1.7920     0.0050     2.5160 c3         1 K09      -0.020200
     23 C23          1.7370    -1.4320     3.0420 c3         1 K09      -0.093700
     24 C24          1.2380    -1.4270     4.4640 cc         1 K09       0.345800
     25 N25          1.7380    -0.7470     5.4660 nd         1 K09      -0.382000
     26 N26          1.0360    -1.0090     6.5140 nd         1 K09      -0.031000
     27 N27          0.1010    -1.8390     6.2060 nc         1 K09      -0.228800
     28 N28          0.1890    -2.1170     4.9500 na         1 K09      -0.123400
     29 H1          -0.3610     0.5990     0.8270 hc         1 K09       0.045700
     30 H2          -0.3610     0.4170    -0.9320 hc         1 K09       0.045700
     31 H3          -0.3610    -1.0160     0.1050 hc         1 K09       0.045700
     32 H5           0.8870    -0.0140    -2.7180 ha         1 K09       0.141000
     33 H7           2.1660    -1.3800    -4.8130 ha         1 K09       0.140000
     34 H8           3.7920    -0.9800    -6.6170 ha         1 K09       0.136000
     35 H9           5.4940     2.2540    -4.4010 ha         1 K09       0.136000
     36 H10          3.8770     1.8790    -2.5840 ha         1 K09       0.140000
     37 H11          5.5600     0.1800    -7.5170 hc         1 K09       0.055700
     38 H12          5.9170     3.0290    -6.5380 hc         1 K09       0.037533
     39 H13          4.5050     2.4990    -7.4630 hc         1 K09       0.037533
     40 H14          6.1170     2.4200    -8.1870 hc         1 K09       0.037533
     41 H15          7.3660     1.5290    -5.4800 hc         1 K09       0.037533
     42 H16          7.2340    -0.2240    -5.6730 hc         1 K09       0.037533
     43 H17          7.8570     0.7670    -6.9990 hc         1 K09       0.037533
     44 H18          5.0360    -0.0150    -2.4400 ha         1 K09       0.157000
     45 H19          7.1140    -0.0180    -1.1200 ha         1 K09       0.146000
     46 H20          4.8610    -0.0060     2.5130 ha         1 K09       0.150000
     47 H21          0.8000     0.4400     2.5500 hc         1 K09       0.066200
     48 H22          2.4640     0.5890     3.1320 hc         1 K09       0.066200
     49 H23          2.7290    -1.8660     3.0080 hc         1 K09       0.067200
     50 H24          1.0660    -2.0160     2.4250 hc         1 K09       0.067200
     51 H25         -0.4060    -2.7350     4.4340 hn         1 K09       0.341700
@<TRIPOS>BOND
     1    21    19 1
     2    19    20 ar
     3    19    18 ar
     4    20     4 ar
     5    22    23 1
     6    22     3 1
     7    18    17 ar
     8    23    24 1
     9     4     3 1
    10     4     5 ar
    11     3     2 2
    12    17     5 ar
    13     5     6 1
    14    24    28 1
    15    24    25 2
    16     2     6 1
    17     2     1 1
    18     6     7 2
    19    13    12 ar
    20    13     8 ar
    21    28    27 1
    22    25    26 1
    23    12    11 ar
    24     7     8 1
    25     8     9 ar
    26    27    26 2
    27    11    14 1
    28    11    10 ar
    29    14    16 1
    30    14    15 1
    31     9    10 ar
    32     1    29 1
    33     1    30 1
    34     1    31 1
    35     7    32 1
    36     9    33 1
    37    10    34 1
    38    12    35 1
    39    13    36 1
    40    14    37 1
    41    15    38 1
    42    15    39 1
    43    15    40 1
    44    16    41 1
    45    16    42 1
    46    16    43 1
    47    17    44 1
    48    18    45 1
    49    20    46 1
    50    22    47 1
    51    22    48 1
    52    23    49 1
    53    23    50 1
    54    28    51 1
@<TRIPOS>SUBSTRUCTURE
     1 K09         1 TEMP              0 ****  ****    0 ROOT
