@<TRIPOS>MOLECULE
K09
   51    54     1     0     0
SMALL
bcc


@<TRIPOS>ATOM
      1 C01         0.1170    0.4670   -0.1990 c3        1 K09     -0.057900
      2 C02         1.5500    0.2610    0.0340 cc        1 K09     -0.058200
      3 C03         2.1920    0.0410    1.2240 cd        1 K09     -0.084400
      4 C04         3.6330   -0.1060    0.9650 ca        1 K09     -0.033800
      5 C05         3.8480    0.0360   -0.4470 ca        1 K09     -0.078800
      6 C06         2.5420    0.2800   -1.0800 cc        1 K09     -0.033200
      7 C07         2.2160    0.4720   -2.3660 cf        1 K09     -0.046200
      8 C08         3.1120    0.5470   -3.5100 ca        1 K09     -0.077800
      9 C09         2.9400   -0.3420   -4.5800 ca        1 K09     -0.114000
     10 C10         3.7550   -0.2560   -5.7050 ca        1 K09     -0.129000
     11 C11         4.7470    0.7280   -5.7920 ca        1 K09     -0.064300
     12 C12         4.9110    1.6220   -4.7260 ca        1 K09     -0.129000
     13 C13         4.1050    1.5320   -3.5950 ca        1 K09     -0.114000
     14 C14         5.6130    0.8170   -7.0100 c3        1 K09     -0.026400
     15 C15         5.4300    2.1500   -7.7110 c3        1 K09     -0.088100
     16 C16         7.0720    0.5970   -6.6570 c3        1 K09     -0.088100
     17 C17         5.1240   -0.0830   -0.9680 ca        1 K09     -0.076000
     18 C18         6.1980   -0.3310   -0.1050 ca        1 K09     -0.172000
     19 C19         5.9820   -0.4580    1.2760 ca        1 K09      0.127900
     20 C20         4.6840   -0.3460    1.8270 ca        1 K09     -0.155000
     21 F21         7.0300   -0.6950    2.1020 f         1 K09     -0.142900
     22 C22         1.6130   -0.0300    2.5780 c3        1 K09     -0.023200
     23 C23         1.4680   -1.4750    3.0330 c3        1 K09     -0.104700
     24 C24         0.8960   -1.5500    4.4000 cc        1 K09      0.392800
     25 N25        -0.2380   -0.9700    4.9010 nd        1 K09     -0.378000
     26 N26        -0.3360   -1.3490    6.1740 nd        1 K09     -0.048000
     27 N27         0.6250   -2.1180    6.5370 nc        1 K09     -0.194800
     28 N28         1.4320   -2.2840    5.4790 na        1 K09     -0.188400
     29 H1         -0.0590    1.4670   -0.6710 hc        1 K09      0.052700
     30 H2         -0.4650    0.4210    0.7550 hc        1 K09      0.052700
     31 H3         -0.2810   -0.3190   -0.8900 hc        1 K09      0.052700
     32 H5          1.1460    0.5910   -2.6300 ha        1 K09      0.136000
     33 H7          2.1590   -1.1150   -4.5270 ha        1 K09      0.138000
     34 H8          3.6130   -0.9660   -6.5340 ha        1 K09      0.136000
     35 H9          5.6840    2.4040   -4.7850 ha        1 K09      0.136000
     36 H10         4.2430    2.2400   -2.7640 ha        1 K09      0.138000
     37 H11         5.3040    0.0020   -7.7290 hc        1 K09      0.052700
     38 H12         5.7380    2.9910   -7.0440 hc        1 K09      0.037700
     39 H13         6.0560    2.1820   -8.6350 hc        1 K09      0.037700
     40 H14         4.3620    2.2960   -7.9970 hc        1 K09      0.037700
     41 H15         7.2100   -0.3980   -6.1700 hc        1 K09      0.037700
     42 H16         7.4320    1.3880   -5.9570 hc        1 K09      0.037700
     43 H17         7.6970    0.6310   -7.5820 hc        1 K09      0.037700
     44 H18         5.3030    0.0150   -2.0500 ha        1 K09      0.152000
     45 H19         7.2170   -0.4270   -0.5060 ha        1 K09      0.149000
     46 H20         4.5350   -0.4470    2.9110 ha        1 K09      0.146000
     47 H21         2.2790    0.5230    3.2950 hc        1 K09      0.069200
     48 H22         0.6080    0.4730    2.6000 hc        1 K09      0.069200
     49 H23         2.4710   -1.9800    2.9990 hc        1 K09      0.073200
     50 H24         0.7830   -2.0270    2.3330 hc        1 K09      0.073200
     51 H25         2.2510   -2.8430    5.5110 hn        1 K09      0.333700
@<TRIPOS>BOND
     1    1    2 1   
     2    1   29 1   
     3    1   30 1   
     4    1   31 1   
     5    2    3 2   
     6    2    6 1   
     7    3    4 1   
     8    3   22 1   
     9    4    5 ar  
    10    4   20 ar  
    11    5    6 1   
    12    5   17 ar  
    13    6    7 2   
    14    7    8 1   
    15    7   32 1   
    16    8    9 ar  
    17    8   13 ar  
    18    9   10 ar  
    19    9   33 1   
    20   10   11 ar  
    21   10   34 1   
    22   11   12 ar  
    23   11   14 1   
    24   12   13 ar  
    25   12   35 1   
    26   13   36 1   
    27   14   15 1   
    28   14   16 1   
    29   14   37 1   
    30   15   38 1   
    31   15   39 1   
    32   15   40 1   
    33   16   41 1   
    34   16   42 1   
    35   16   43 1   
    36   17   18 ar  
    37   17   44 1   
    38   18   19 ar  
    39   18   45 1   
    40   19   20 ar  
    41   19   21 1   
    42   20   46 1   
    43   22   23 1   
    44   22   47 1   
    45   22   48 1   
    46   23   24 1   
    47   23   49 1   
    48   23   50 1   
    49   24   25 2   
    50   24   28 1   
    51   25   26 1   
    52   26   27 2   
    53   27   28 1   
    54   28   51 1   
@<TRIPOS>SUBSTRUCTURE
     1 K09         1 TEMP              0 ****  ****    0 ROOT
