@<TRIPOS>MOLECULE
molecule
   28    29     1     0     0
SMALL
bcc


@<TRIPOS>ATOM
      1 N1           0.0000     0.0000     0.0000 n          1 K0A      -0.477800
      2 C4           1.4700     0.0000     0.0000 c3         1 K0A       0.101000
      3 C5           1.9280     0.0000     1.4740 c3         1 K0A      -0.100900
      4 C6           0.6940    -0.5700     2.2210 c3         1 K0A      -0.100900
      5 C7          -0.4740     0.0270     1.3960 c3         1 K0A       0.101000
      6 C8          -3.0980    -0.0260    -2.0050 cc         1 K0A      -0.097700
      7 N           -2.8680     0.0040     0.2330 nc         1 K0A      -0.669000
      8 O           -0.2840    -0.0300    -2.2040 o          1 K0A      -0.618100
      9 C1          -4.1540     0.0110     0.1940 cd         1 K0A       0.417700
     10 C2          -2.2510    -0.0120    -0.9510 cc         1 K0A       0.299800
     11 C3          -0.7850    -0.0150    -1.0950 c          1 K0A       0.616600
     12 S           -4.7050    -0.0180    -1.4220 ss         1 K0A      -0.148300
     13 H1           1.8380     0.8890    -0.4990 h1         1 K0A       0.058200
     14 H2           1.8380    -0.8890    -0.4990 h1         1 K0A       0.058200
     15 H3           2.7870    -0.6470     1.6070 hc         1 K0A       0.053200
     16 H4           2.1430     1.0080     1.8070 hc         1 K0A       0.053200
     17 H5           0.6640    -0.2160     3.2440 hc         1 K0A       0.053200
     18 H6           0.6830    -1.6530     2.1770 hc         1 K0A       0.053200
     19 H7          -1.3610    -0.5850     1.5030 h1         1 K0A       0.058200
     20 H8          -0.6710     1.0460     1.7070 h1         1 K0A       0.058200
     21 H9          -6.0670     0.2390     1.1000 hc         1 K0A       0.057033
     22 H10         -5.0110    -0.9350     1.8980 hc         1 K0A       0.057033
     23 H11         -4.7130     0.7980     2.0920 hc         1 K0A       0.057033
     24 H12         -2.1030    -0.9400    -3.6500 hc         1 K0A       0.060033
     25 H13         -3.5770    -0.0620    -4.0790 hc         1 K0A       0.060033
     26 H14         -2.1020     0.8280    -3.6810 hc         1 K0A       0.060033
     27 C9          -2.6910    -0.0520    -3.4560 c3         1 K0A      -0.007800
     28 C           -5.0490     0.0300     1.4060 c3         1 K0A      -0.111400
@<TRIPOS>BOND
     1     8    11 2
     2     7     9 2
     3     7    10 1
     4    11    10 1
     5    11     1 1
     6    28     9 1
     7     9    12 1
     8     5     1 1
     9     5     4 1
    10    10     6 2
    11     1     2 1
    12     6    12 1
    13     6    27 1
    14     4     3 1
    15     2     3 1
    16     2    13 1
    17     2    14 1
    18     3    15 1
    19     3    16 1
    20     4    17 1
    21     4    18 1
    22     5    19 1
    23     5    20 1
    24    28    21 1
    25    28    22 1
    26    28    23 1
    27    27    24 1
    28    27    25 1
    29    27    26 1
@<TRIPOS>SUBSTRUCTURE
     1 K0A         1 TEMP              0 ****  ****    0 ROOT
