@<TRIPOS>MOLECULE
K0D
   28    29     1     0     0
SMALL
bcc


@<TRIPOS>ATOM
      1 N1           0.0000     0.0000     0.0000 nc         1 K0D      -0.464100
      2 C4           5.8890     0.5400     2.0180 c3         1 K0D      -0.019100
      3 C5           5.2300     0.9680     4.3960 c3         1 K0D       0.197400
      4 C6           3.2720    -0.0010     1.5970 c          1 K0D       0.525600
      5 C7           1.8270     0.0000     1.2910 cd         1 K0D       0.175500
      6 C8           1.3010     0.0000     0.0000 cd         1 K0D       0.316900
      7 N            3.6910    -0.1460     2.8700 n          1 K0D      -0.107800
      8 O            4.3560     0.5450     5.4450 os         1 K0D      -0.405600
      9 C1           2.9710     0.5480     5.0910 c3         1 K0D       0.173100
     10 C2           2.7390    -0.4490     3.9500 c3         1 K0D      -0.076000
     11 C3           5.1130    -0.0070     3.2190 c3         1 K0D      -0.004300
     12 N2           0.8790     0.0000     2.2030 nc         1 K0D      -0.470100
     13 O1           4.0830     0.1300     0.7000 o          1 K0D      -0.647100
     14 S           -0.5010    -0.0000     1.4770 ss         1 K0D       0.422200
     15 H1           5.9250    -0.2110     1.2390 hc         1 K0D       0.026033
     16 H2           5.3940     1.4270     1.6420 hc         1 K0D       0.026033
     17 H3           6.8970     0.7920     2.3240 hc         1 K0D       0.026033
     18 H4           6.2510     0.9760     4.7580 h1         1 K0D       0.017200
     19 H5           4.9470     1.9620     4.0700 h1         1 K0D       0.017200
     20 H6           1.9050     0.0000    -0.8990 h4         1 K0D       0.036100
     21 H10          2.6850     1.5410     4.7660 h1         1 K0D       0.011700
     22 H11          1.7260    -0.3490     3.5810 h1         1 K0D       0.072200
     23 H12          2.9050    -1.4570     4.3090 h1         1 K0D       0.072200
     24 H13          5.5120    -0.9730     3.5070 h1         1 K0D       0.035700
     25 C            2.1330     0.1400     6.3050 c3         1 K0D       0.007900
     26 H7           2.4010     0.7580     7.1540 hc         1 K0D       0.011367
     27 H8           1.0820     0.2740     6.0800 hc         1 K0D       0.011367
     28 H9           2.3220    -0.9000     6.5420 hc         1 K0D       0.011367
@<TRIPOS>BOND
     1     1     6 2   
     2     1    14 1   
     3     2    11 1   
     4     2    15 1   
     5     2    16 1   
     6     2    17 1   
     7     3     8 1   
     8     3    11 1   
     9     3    18 1   
    10     3    19 1   
    11     4     5 1   
    12     4     7 1   
    13     4    13 2   
    14     5     6 1   
    15     5    12 2   
    16     6    20 1   
    17     7    10 1   
    18     7    11 1   
    19     8     9 1   
    20     9    10 1   
    21     9    21 1   
    22     9    25 1   
    23    10    22 1   
    24    10    23 1   
    25    11    24 1   
    26    12    14 1   
    27    25    26 1   
    28    25    27 1   
    29    25    28 1   
@<TRIPOS>SUBSTRUCTURE
     1 K0D         1 TEMP              0 ****  ****    0 ROOT
