@<TRIPOS>MOLECULE
K0G
   27    28     1     0     0
SMALL
bcc


@<TRIPOS>ATOM
      1 N1           0.0000     0.0000     0.0000 ns         1 K0G      -0.043100
      2 C4          -4.1240     2.6990     3.9160 ca         1 K0G      -0.114000
      3 C5          -2.9680     3.2230     3.3650 ca         1 K0G      -0.082500
      4 C6          -2.2690     2.5070     2.4150 ca         1 K0G      -0.117000
      5 C7           1.3990     0.0000     0.0000 ca         1 K0G      -0.194700
      6 C8           2.1060     0.0000     1.2000 ca         1 K0G      -0.073000
      7 C10          4.1210    -0.0020    -0.0830 ca         1 K0G       0.383200
      8 N           -2.0170     0.5310     1.0480 ns         1 K0G      -0.046100
      9 C           -0.6740     0.6180     0.9910 c          1 K0G       0.551100
     10 O           -0.0690     1.2550     1.8330 o          1 K0G      -0.682100
     11 C1          -2.7250     1.2590     2.0110 ca         1 K0G      -0.079400
     12 C11          2.1040    -0.0060    -1.1970 ca         1 K0G       0.369200
     13 C2          -3.8860     0.7360     2.5660 ca         1 K0G      -0.117000
     14 C3          -4.5820     1.4570     3.5160 ca         1 K0G      -0.082500
     15 C9           3.4900    -0.0010     1.1480 ca         1 K0G      -0.200300
     16 N2           3.4220    -0.0080    -1.2010 nb         1 K0G      -0.566000
     17 H1          -0.5000    -0.4880    -0.7160 hn         1 K0G       0.161500
     18 H3          -2.6120     4.1970     3.6800 ha         1 K0G       0.103000
     19 H4          -1.3640     2.9180     1.9840 ha         1 K0G       0.122500
     20 H5           1.5870     0.0010     2.1500 ha         1 K0G       0.149000
     21 H6           5.2030    -0.0030    -0.1290 h4         1 K0G      -0.019900
     22 H7          -2.5110    -0.0330     0.3860 hn         1 K0G       0.160500
     23 H8           1.5650    -0.0110    -2.1360 h4         1 K0G      -0.021900
     24 H9          -4.2460    -0.2370     2.2530 ha         1 K0G       0.122500
     25 H10         -5.4880     1.0500     3.9490 ha         1 K0G       0.103000
     26 H11          4.0730     0.0020     2.0620 ha         1 K0G       0.114000
     27 H2          -4.6710     3.2630     4.6610 ha         1 K0G       0.103000
@<TRIPOS>BOND
     1     1     5 1   
     2     1     9 1   
     3     1    17 1   
     4     2     3 ar  
     5     2    14 ar  
     6     2    27 1   
     7     3     4 ar  
     8     3    18 1   
     9     4    11 ar  
    10     4    19 1   
    11     5     6 ar  
    12     5    12 ar  
    13     6    15 ar  
    14     6    20 1   
    15     7    15 ar  
    16     7    16 ar  
    17     7    21 1   
    18     8     9 1   
    19     8    11 1   
    20     8    22 1   
    21     9    10 2   
    22    11    13 ar  
    23    12    16 ar  
    24    12    23 1   
    25    13    14 ar  
    26    13    24 1   
    27    14    25 1   
    28    15    26 1   
@<TRIPOS>SUBSTRUCTURE
     1 K0G         1 TEMP              0 ****  ****    0 ROOT
