@<TRIPOS>MOLECULE
K0I
   51    54     1     0     0
SMALL
bcc


@<TRIPOS>ATOM
      1 O2           0.0000     0.0000     0.0000 o          1 K0I      -0.895300
      2 C1           1.2090     0.0000     0.0000 c          1 K0I       0.983600
      3 O1           1.8790     0.0000     1.1630 o          1 K0I      -0.895300
      4 C2           1.9620    -0.0080    -1.3050 c3         1 K0I      -0.144400
      5 C3           0.9680    -0.0130    -2.4680 c3         1 K0I       0.155800
      6 N1           1.7010    -0.0210    -3.7370 nu         1 K0I      -0.476900
      7 C4           1.0070    -0.0280    -4.9370 ca         1 K0I       0.564200
      8 N3           1.6630    -0.0340    -6.0940 nb         1 K0I      -0.734000
      9 C7           1.0080    -0.0400    -7.2460 cp         1 K0I       0.600000
     10 C8           1.7770    -0.0470    -8.5150 cp         1 K0I       0.329300
     11 N4           1.1330    -0.0530    -9.6750 nb         1 K0I      -0.534000
     12 C12          1.7780    -0.0590   -10.8220 ca         1 K0I       0.381200
     13 C11          3.1620    -0.0600   -10.8610 ca         1 K0I      -0.227300
     14 C10          3.8740    -0.0540    -9.6710 ca         1 K0I      -0.090000
     15 C9           3.1700    -0.0420    -8.4780 ca         1 K0I      -0.178300
     16 N2          -0.3160    -0.0400    -7.2940 nb         1 K0I      -0.707000
     17 C6          -1.0390    -0.0330    -6.1780 ca         1 K0I       0.550200
     18 C5          -0.3850    -0.0320    -4.9480 ca         1 K0I      -0.471600
     19 N5          -2.4240    -0.0330    -6.2370 nh         1 K0I      -0.460300
     20 C22         -2.8860    -0.0410    -7.6150 c3         1 K0I       0.136300
     21 C21         -4.3490    -0.4890    -7.6970 c3         1 K0I       0.020400
     22 C20         -5.2300     0.7200    -7.4580 ca         1 K0I      -0.083300
     23 C15         -5.2830     1.2910    -6.2110 ca         1 K0I      -0.083300
     24 C14         -4.4610     0.7110    -5.0790 c3         1 K0I       0.020400
     25 C13         -2.9820     0.9890    -5.3670 c3         1 K0I       0.136300
     26 C19         -5.9770     1.2410    -8.4980 ca         1 K0I      -0.097000
     27 C18         -6.7810     2.3450    -8.2750 ca         1 K0I      -0.112000
     28 C17         -6.8350     2.9210    -7.0190 ca         1 K0I      -0.112000
     29 C16         -6.0840     2.3950    -5.9830 ca         1 K0I      -0.097000
     30 H21C         2.5840    -0.8930    -1.3570 hc         1 K0I       0.011200
     31 H22C         2.5850     0.8760    -1.3670 hc         1 K0I       0.011200
     32 H31C         0.3440    -0.8970    -2.4060 h1         1 K0I       0.031200
     33 H32C         0.3460     0.8720    -2.4160 h1         1 K0I       0.031200
     34 HA           2.7010     0.0170    -3.7370 hn         1 K0I       0.293800
     35 H5          -0.9340    -0.2660    -4.0430 ha         1 K0I       0.160000
     36 H9           3.6950    -0.0370    -7.5310 ha         1 K0I       0.137000
     37 H12          1.2180    -0.0640   -11.7500 h4         1 K0I      -0.026900
     38 H11          3.6830    -0.0680   -11.8110 ha         1 K0I       0.104000
     39 H10          4.9570    -0.0530    -9.6750 ha         1 K0I       0.103000
     40 H221        -2.2800    -0.7410    -8.1780 h1         1 K0I       0.035700
     41 H222        -2.8110     0.9650    -8.0090 h1         1 K0I       0.035700
     42 H131        -2.4400     0.9760    -4.4290 h1         1 K0I       0.035700
     43 H132        -2.9030     1.9470    -5.8660 h1         1 K0I       0.035700
     44 H211        -4.5440    -0.8780    -8.6890 hc         1 K0I       0.029700
     45 H212        -4.5370    -1.2220    -6.9220 hc         1 K0I       0.029700
     46 H19         -5.9340     0.7880    -9.4810 ha         1 K0I       0.105500
     47 H141        -4.7440     1.1810    -4.1450 hc         1 K0I       0.029700
     48 H142        -4.6260    -0.3580    -5.0210 hc         1 K0I       0.029700
     49 H16         -6.1240     2.8450    -4.9980 ha         1 K0I       0.105500
     50 H18         -7.3700     2.7590    -9.0850 ha         1 K0I       0.096000
     51 H17         -7.4640     3.7860    -6.8470 ha         1 K0I       0.096000
@<TRIPOS>BOND
     1     1     2 1   
     2     2     3 1   
     3     2     4 1   
     4     4     5 1   
     5     4    30 1   
     6     4    31 1   
     7     5     6 1   
     8     5    32 1   
     9     5    33 1   
    10     6     7 1   
    11     6    34 1   
    12     7     8 ar  
    13     7    18 ar  
    14     8     9 ar  
    15     9    10 1   
    16     9    16 ar  
    17    10    11 ar  
    18    10    15 ar  
    19    11    12 ar  
    20    12    13 ar  
    21    12    37 1   
    22    13    14 ar  
    23    13    38 1   
    24    14    15 ar  
    25    14    39 1   
    26    15    36 1   
    27    16    17 ar  
    28    17    18 ar  
    29    17    19 1   
    30    18    35 1   
    31    19    20 1   
    32    19    25 1   
    33    20    21 1   
    34    20    40 1   
    35    20    41 1   
    36    21    22 1   
    37    21    44 1   
    38    21    45 1   
    39    22    23 ar  
    40    22    26 ar  
    41    23    24 1   
    42    23    29 ar  
    43    24    25 1   
    44    24    47 1   
    45    24    48 1   
    46    25    42 1   
    47    25    43 1   
    48    26    27 ar  
    49    26    46 1   
    50    27    28 ar  
    51    27    50 1   
    52    28    29 ar  
    53    28    51 1   
    54    29    49 1   
@<TRIPOS>SUBSTRUCTURE
     1 K0I         1 TEMP              0 ****  ****    0 ROOT
