@<TRIPOS>MOLECULE
K0J
   18    18     1     0     0
SMALL
bcc


@<TRIPOS>ATOM
      1 N1           0.0000     0.0000     0.0000 na         1 K0J       0.453400
      2 N3           0.6460     0.0000     2.0840 nc         1 K0J      -0.246000
      3 C4           1.3480     0.0000     0.0000 cd         1 K0J      -0.300600
      4 N            3.3970     0.0000     3.1100 ns         1 K0J      -0.178900
      5 C            4.7960     0.0000     5.1160 c3         1 K0J      -0.007100
      6 O            4.0560     0.0000     0.9880 o          1 K0J      -0.664100
      7 C1           4.7820     0.0000     3.5860 c3         1 K0J       0.048000
      8 C3           1.7430     0.0000     1.3080 cc         1 K0J       0.161800
      9 N2          -0.4060     0.0000     1.3420 nd         1 K0J      -0.384800
     10 H1          -0.5960    -0.0000    -0.8040 hn         1 K0J       0.159700
     11 H2           1.9940    -0.0000    -0.8700 h4         1 K0J       0.171000
     12 H3           2.6420     0.0000     3.7670 hn         1 K0J       0.190500
     13 H4           4.2880    -0.8840     5.4820 hc         1 K0J       0.008367
     14 H5           4.2890     0.8850     5.4820 hc         1 K0J       0.008367
     15 H6           5.8200    -0.0000     5.4680 hc         1 K0J       0.008367
     16 H7           5.2890     0.8840     3.2200 h1         1 K0J       0.023700
     17 H8           5.2890    -0.8840     3.2200 h1         1 K0J       0.023700
     18 C2           3.1390     0.0000     1.7870 c          1 K0J       0.523600
@<TRIPOS>BOND
     1     1     3 1   
     2     1     9 1   
     3     1    10 1   
     4     2     8 1   
     5     2     9 2   
     6     3     8 2   
     7     3    11 1   
     8     4     7 1   
     9     4    12 1   
    10     4    18 1   
    11     5     7 1   
    12     5    13 1   
    13     5    14 1   
    14     5    15 1   
    15     6    18 2   
    16     7    16 1   
    17     7    17 1   
    18     8    18 1   
@<TRIPOS>SUBSTRUCTURE
     1 K0J         1 TEMP              0 ****  ****    0 ROOT
