@<TRIPOS>MOLECULE
molecule
   18    18     1     0     0
SMALL
bcc


@<TRIPOS>ATOM
      1 N1           0.0000     0.0000     0.0000 na         1 K0J      -0.048600
      2 N3           0.6460     0.0000     2.0840 nc         1 K0J      -0.330000
      3 C4           1.3480     0.0000     0.0000 cc         1 K0J      -0.154600
      4 N            3.3970     0.0000     3.1100 ns         1 K0J      -0.570900
      5 C            4.7960     0.0000     5.1160 c3         1 K0J      -0.112100
      6 O            4.0560     0.0000     0.9880 o          1 K0J      -0.619100
      7 C1           4.7820     0.0000     3.5860 c3         1 K0J       0.111000
      8 C3           1.7430     0.0000     1.3080 cd         1 K0J       0.191800
      9 N2          -0.4060     0.0000     1.3420 nd         1 K0J      -0.180800
     10 H1          -0.5960    -0.0000    -0.8040 hn         1 K0J       0.337700
     11 H2           1.9940    -0.0000    -0.8700 h4         1 K0J       0.203000
     12 H3           2.6420     0.0000     3.7670 hn         1 K0J       0.330500
     13 H4           4.2880    -0.8840     5.4820 hc         1 K0J       0.043700
     14 H5           4.2890     0.8850     5.4820 hc         1 K0J       0.043700
     15 H6           5.8200    -0.0000     5.4680 hc         1 K0J       0.043700
     16 H7           5.2890     0.8840     3.2200 h1         1 K0J       0.052700
     17 H8           5.2890    -0.8840     3.2200 h1         1 K0J       0.052700
     18 C2           3.1390     0.0000     1.7870 c          1 K0J       0.605600
@<TRIPOS>BOND
     1     6    18 2
     2     3     8 2
     3     3     1 1
     4    18     8 1
     5    18     4 1
     6     8     2 1
     7     1     9 1
     8     7     5 1
     9     7     4 1
    10     2     9 2
    11     1    10 1
    12     3    11 1
    13     4    12 1
    14     5    13 1
    15     5    14 1
    16     5    15 1
    17     7    16 1
    18     7    17 1
@<TRIPOS>SUBSTRUCTURE
     1 K0J         1 TEMP              0 ****  ****    0 ROOT
