@<TRIPOS>MOLECULE
molecule
   31    32     1     0     0
SMALL
bcc


@<TRIPOS>ATOM
      1 N1           0.0000     0.0000     0.0000 ns         1 K0P      -0.580900
      2 N3           2.6580     0.7470    -3.3660 nc         1 K0P      -0.508800
      3 C4           1.4650     0.0000     0.0000 c3         1 K0P       0.199300
      4 C5          -0.6740     0.0000     1.1670 c          1 K0P       0.672700
      5 C6          -2.1530     0.0070     1.1670 ca         1 K0P      -0.271900
      6 C7          -2.8650     0.0130     2.3730 ca         1 K0P      -0.034000
      7 C8          -4.2470     0.0190     2.3180 ca         1 K0P      -0.265300
      8 C10         -2.8630     0.0140    -0.0340 ca         1 K0P       0.440200
      9 N            2.6600    -0.6530    -3.3820 na         1 K0P       0.068400
     10 C            2.2440    -1.1200    -5.7460 c3         1 K0P      -0.109100
     11 O           -0.0670    -0.0060     2.2200 o          1 K0P      -0.610100
     12 C1           3.0580    -1.5020    -4.5080 c3         1 K0P       0.072300
     13 C11          2.2430     1.1420    -2.1900 cd         1 K0P       0.346200
     14 C2           2.2320    -1.0830    -2.1760 cc         1 K0P      -0.093300
     15 C3           1.9670     0.0070    -1.4200 cd         1 K0P      -0.349600
     16 C9          -4.8760     0.0210     1.0860 ca         1 K0P       0.437200
     17 N2          -4.1790     0.0200    -0.0350 nb         1 K0P      -0.696000
     18 H1          -0.5000    -0.0050    -0.8670 hn         1 K0P       0.317500
     19 H2           1.8260    -0.8870     0.5070 h1         1 K0P       0.057700
     20 H3           1.8260     0.8820     0.5150 h1         1 K0P       0.057700
     21 H4          -2.3460     0.0110     3.3240 ha         1 K0P       0.164000
     22 H5          -4.8310     0.0220     3.2310 ha         1 K0P       0.144000
     23 H6          -2.3250     0.0140    -0.9750 h4         1 K0P       0.019100
     24 H7           2.5480    -0.1390    -6.0900 hc         1 K0P       0.051033
     25 H8           1.1900    -1.1040    -5.4950 hc         1 K0P       0.051033
     26 H9           2.4170    -1.8470    -6.5310 hc         1 K0P       0.051033
     27 H10          4.1130    -1.3610    -4.7120 h1         1 K0P       0.059700
     28 H11          2.8740    -2.5400    -4.2610 h1         1 K0P       0.059700
     29 H12          2.1310     2.1710    -1.8680 h4         1 K0P       0.053100
     30 H13          2.1210    -2.1160    -1.8700 h4         1 K0P       0.173000
     31 H14         -5.9590     0.0260     1.0400 h4         1 K0P       0.025100
@<TRIPOS>BOND
     1     2    13 2
     2     2     9 1
     3    12    10 1
     4    12     9 1
     5    13    15 1
     6     9    14 1
     7    15    14 2
     8    15     3 1
     9    11     4 2
    10     3     1 1
    11     4     1 1
    12     4     5 1
    13     6     5 ar
    14     6     7 ar
    15     5     8 ar
    16     7    16 ar
    17     8    17 ar
    18    16    17 ar
    19     1    18 1
    20     3    19 1
    21     3    20 1
    22     6    21 1
    23     7    22 1
    24     8    23 1
    25    10    24 1
    26    10    25 1
    27    10    26 1
    28    12    27 1
    29    12    28 1
    30    13    29 1
    31    14    30 1
    32    16    31 1
@<TRIPOS>SUBSTRUCTURE
     1 K0P         1 TEMP              0 ****  ****    0 ROOT
