@<TRIPOS>MOLECULE
K0P
   31    32     1     0     0
SMALL
bcc


@<TRIPOS>ATOM
      1 N1           0.0000     0.0000     0.0000 ns         1 K0P      -0.197900
      2 N3           2.6580     0.7470    -3.3660 nc         1 K0P      -0.645800
      3 C4           1.4650     0.0000     0.0000 c3         1 K0P       0.162300
      4 C5          -0.6740     0.0000     1.1670 c          1 K0P       0.597700
      5 C6          -2.1530     0.0070     1.1670 ca         1 K0P      -0.275900
      6 C7          -2.8650     0.0130     2.3730 ca         1 K0P      -0.002000
      7 C8          -4.2470     0.0190     2.3180 ca         1 K0P      -0.234300
      8 C10         -2.8630     0.0140    -0.0340 ca         1 K0P       0.419200
      9 N            2.6600    -0.6530    -3.3820 na         1 K0P       0.492400
     10 C            2.2440    -1.1200    -5.7460 c3         1 K0P      -0.008100
     11 O           -0.0670    -0.0060     2.2200 o          1 K0P      -0.652100
     12 C1           3.0580    -1.5020    -4.5080 c3         1 K0P      -0.007700
     13 C11          2.2430     1.1420    -2.1900 cd         1 K0P       0.410200
     14 C2           2.2320    -1.0830    -2.1760 cc         1 K0P      -0.228300
     15 C3           1.9670     0.0070    -1.4200 cd         1 K0P      -0.365600
     16 C9          -4.8760     0.0210     1.0860 ca         1 K0P       0.422200
     17 N2          -4.1790     0.0200    -0.0350 nb         1 K0P      -0.589000
     18 H1          -0.5000    -0.0050    -0.8670 hn         1 K0P       0.182500
     19 H2           1.8260    -0.8870     0.5070 h1         1 K0P       0.025700
     20 H3           1.8260     0.8820     0.5150 h1         1 K0P       0.025700
     21 H4          -2.3460     0.0110     3.3240 ha         1 K0P       0.132000
     22 H5          -4.8310     0.0220     3.2310 ha         1 K0P       0.117000
     23 H6          -2.3250     0.0140    -0.9750 h4         1 K0P      -0.022900
     24 H7           2.5480    -0.1390    -6.0900 hc         1 K0P       0.016700
     25 H8           1.1900    -1.1040    -5.4950 hc         1 K0P       0.016700
     26 H9           2.4170    -1.8470    -6.5310 hc         1 K0P       0.016700
     27 H10          4.1130    -1.3610    -4.7120 h1         1 K0P       0.029700
     28 H11          2.8740    -2.5400    -4.2610 h1         1 K0P       0.029700
     29 H12          2.1310     2.1710    -1.8680 h4         1 K0P       0.008100
     30 H13          2.1210    -2.1160    -1.8700 h4         1 K0P       0.148000
     31 H14         -5.9590     0.0260     1.0400 h4         1 K0P      -0.020900
@<TRIPOS>BOND
     1     1     3 1   
     2     1     4 1   
     3     1    18 1   
     4     2     9 1   
     5     2    13 2   
     6     3    15 1   
     7     3    19 1   
     8     3    20 1   
     9     4     5 1   
    10     4    11 2   
    11     5     6 ar  
    12     5     8 ar  
    13     6     7 ar  
    14     6    21 1   
    15     7    16 ar  
    16     7    22 1   
    17     8    17 ar  
    18     8    23 1   
    19     9    12 1   
    20     9    14 1   
    21    10    12 1   
    22    10    24 1   
    23    10    25 1   
    24    10    26 1   
    25    12    27 1   
    26    12    28 1   
    27    13    15 1   
    28    13    29 1   
    29    14    15 2   
    30    14    30 1   
    31    16    17 ar  
    32    16    31 1   
@<TRIPOS>SUBSTRUCTURE
     1 K0P         1 TEMP              0 ****  ****    0 ROOT
