@<TRIPOS>MOLECULE
K0S
   29    30     1     0     0
SMALL
bcc


@<TRIPOS>ATOM
      1 N1           0.0000     0.0000     0.0000 nc         1 K0S      -0.293000
      2 N3           3.7680    -0.0020    -3.4030 nb         1 K0S      -0.578000
      3 C4           1.3020     0.0000     0.0000 cd         1 K0S       0.397300
      4 C5           1.5760    -0.0020    -2.3550 c          1 K0S       0.453600
      5 C6           2.4490    -0.0030    -3.5510 ca         1 K0S       0.308800
      6 C7           1.8800    -0.0030    -4.8230 ca         1 K0S      -0.144300
      7 C8           2.7100    -0.0040    -5.9320 ca         1 K0S      -0.077000
      8 C10          4.5790    -0.0040    -4.4380 ca         1 K0S       0.397200
      9 N           -0.5850     0.0010     1.1170 nc         1 K0S      -0.251000
     10 C           -1.0390    -1.4400     5.5280 c3         1 K0S       0.007900
     11 O            0.3670    -0.0020    -2.4850 o          1 K0S      -0.561100
     12 C1          -0.5280    -1.4410     4.0860 c3         1 K0S      -0.030400
     13 C3           0.1460     0.0010     2.1850 cd         1 K0S       0.407700
     14 C9           4.0820    -0.0050    -5.7310 ca         1 K0S      -0.195300
     15 N2           2.1210    -0.0010    -1.1220 ns         1 K0S      -0.042400
     16 S            1.8380     0.0000     1.6820 ss         1 K0S      -0.431800
     17 H1           0.8030    -0.0030    -4.9430 ha         1 K0S       0.139000
     18 H2           2.2970    -0.0040    -6.9330 ha         1 K0S       0.115000
     19 H3           5.6510    -0.0040    -4.2770 h4         1 K0S      -0.016900
     20 H4          -1.1290    -2.4610     5.8800 hc         1 K0S       0.002367
     21 H5          -0.3410    -0.9020     6.1590 hc         1 K0S       0.002367
     22 H6          -2.0080    -0.9570     5.5680 hc         1 K0S       0.002367
     23 H7          -1.2420    -1.9510     3.4510 hc         1 K0S       0.021200
     24 H8           0.4260    -1.9520     4.0410 hc         1 K0S       0.021200
     25 H9           0.3570     0.5120     4.2410 hc         1 K0S       0.031200
     26 H10         -1.3110     0.5130     3.6510 hc         1 K0S       0.031200
     27 H11          4.7590    -0.0060    -6.5770 ha         1 K0S       0.115000
     28 H12          3.1160    -0.0300    -1.0150 hn         1 K0S       0.193500
     29 C2          -0.3570     0.0020     3.6060 c3         1 K0S      -0.024700
@<TRIPOS>BOND
     1     1     3 2   
     2     1     9 1   
     3     2     5 ar  
     4     2     8 ar  
     5     3    15 1   
     6     3    16 1   
     7     4     5 1   
     8     4    11 2   
     9     4    15 1   
    10     5     6 ar  
    11     6     7 ar  
    12     6    17 1   
    13     7    14 ar  
    14     7    18 1   
    15     8    14 ar  
    16     8    19 1   
    17     9    13 2   
    18    10    12 1   
    19    10    20 1   
    20    10    21 1   
    21    10    22 1   
    22    12    23 1   
    23    12    24 1   
    24    12    29 1   
    25    13    16 1   
    26    13    29 1   
    27    14    27 1   
    28    15    28 1   
    29    25    29 1   
    30    26    29 1   
@<TRIPOS>SUBSTRUCTURE
     1 K0S         1 TEMP              0 ****  ****    0 ROOT
