@<TRIPOS>MOLECULE
molecule
   29    30     1     0     0
SMALL
bcc


@<TRIPOS>ATOM
      1 N1           0.0000     0.0000     0.0000 nc         1 K0S      -0.335000
      2 N3           3.7680    -0.0020    -3.4030 nb         1 K0S      -0.693000
      3 C4           1.3020     0.0000     0.0000 cd         1 K0S       0.554300
      4 C5           1.5760    -0.0020    -2.3550 c          1 K0S       0.567600
      5 C6           2.4490    -0.0030    -3.5510 ca         1 K0S       0.368800
      6 C7           1.8800    -0.0030    -4.8230 ca         1 K0S      -0.183300
      7 C8           2.7100    -0.0040    -5.9320 ca         1 K0S      -0.101000
      8 C10          4.5790    -0.0040    -4.4380 ca         1 K0S       0.415200
      9 N           -0.5850     0.0010     1.1170 nc         1 K0S      -0.303000
     10 C           -1.0390    -1.4400     5.5280 c3         1 K0S      -0.093100
     11 O            0.3670    -0.0020    -2.4850 o          1 K0S      -0.523100
     12 C1          -0.5280    -1.4410     4.0860 c3         1 K0S      -0.083400
     13 C3           0.1460     0.0010     2.1850 cd         1 K0S       0.418700
     14 C9           4.0820    -0.0050    -5.7310 ca         1 K0S      -0.229300
     15 N2           2.1210    -0.0010    -1.1220 ns         1 K0S      -0.510400
     16 S            1.8380     0.0000     1.6820 ss         1 K0S      -0.368800
     17 H1           0.8030    -0.0030    -4.9430 ha         1 K0S       0.169000
     18 H2           2.2970    -0.0040    -6.9330 ha         1 K0S       0.147000
     19 H3           5.6510    -0.0040    -4.2770 h4         1 K0S       0.028100
     20 H4          -1.1290    -2.4610     5.8800 hc         1 K0S       0.036367
     21 H5          -0.3410    -0.9020     6.1590 hc         1 K0S       0.036367
     22 H6          -2.0080    -0.9570     5.5680 hc         1 K0S       0.036367
     23 H7          -1.2420    -1.9510     3.4510 hc         1 K0S       0.051200
     24 H8           0.4260    -1.9520     4.0410 hc         1 K0S       0.051200
     25 H9           0.3570     0.5120     4.2410 hc         1 K0S       0.066700
     26 H10         -1.3110     0.5130     3.6510 hc         1 K0S       0.066700
     27 H11          4.7590    -0.0060    -6.5770 ha         1 K0S       0.144000
     28 H12          3.1160    -0.0300    -1.0150 hn         1 K0S       0.358500
     29 C2          -0.3570     0.0020     3.6060 c3         1 K0S      -0.094700
@<TRIPOS>BOND
     1     1     9 1
     2     1     3 2
     3     9    13 2
     4    12    10 1
     5    12    29 1
     6     3    15 1
     7     3    16 1
     8    13    29 1
     9    13    16 1
    10    15     4 1
    11     6     7 ar
    12     6     5 ar
    13     7    14 ar
    14     4     5 1
    15     4    11 2
    16     5     2 ar
    17    14     8 ar
    18     2     8 ar
    19     6    17 1
    20     7    18 1
    21     8    19 1
    22    10    20 1
    23    10    21 1
    24    10    22 1
    25    12    23 1
    26    12    24 1
    27    29    25 1
    28    29    26 1
    29    14    27 1
    30    15    28 1
@<TRIPOS>SUBSTRUCTURE
     1 K0S         1 TEMP              0 ****  ****    0 ROOT
