@<TRIPOS>MOLECULE
K0V
   39    39     1     0     0
SMALL
bcc


@<TRIPOS>ATOM
      1 N1           0.0000     0.0000     0.0000 ns         1 K0V      -0.229900
      2 C4           1.3050    -0.0960    -2.4460 c3         1 K0V       0.059000
      3 C5           3.4860    -0.2170    -1.1720 c3         1 K0V       0.059000
      4 C6           4.0610     0.8720    -2.0810 c3         1 K0V      -0.035400
      5 C7           1.3480     0.0000     0.0000 c          1 K0V       0.607100
      6 C8          -0.7330     0.0000     1.2690 c3         1 K0V       0.028400
      7 C10         -0.3630     1.2500     2.0710 c3         1 K0V      -0.017100
      8 N            2.0210    -0.1010    -1.1630 n          1 K0V      -0.186800
      9 C            4.1920     2.9580    -6.4630 c3         1 K0V       0.269700
     10 O            3.5810     1.9240    -5.6470 os         1 K0V      -0.418900
     11 C1           4.0000     1.8230    -4.3760 c          1 K0V       0.694100
     12 C11         -2.2370     0.0000     0.9900 c3         1 K0V      -0.017100
     13 C2           3.4120     0.7730    -3.4690 c3         1 K0V      -0.094700
     14 C3           1.9020     0.9930    -3.3420 c3         1 K0V      -0.035400
     15 C9          -0.3620    -1.2490     2.0720 c3         1 K0V      -0.017100
     16 O1           4.8510     2.5730    -3.9590 o          1 K0V      -0.578000
     17 O2           1.9560     0.0900     1.0490 o          1 K0V      -0.705100
     18 H1          -0.5000    -0.0370    -0.8660 hn         1 K0V       0.177500
     19 H2           0.2560     0.1110    -2.2740 h1         1 K0V       0.028200
     20 H3           1.4160    -1.0610    -2.9260 h1         1 K0V       0.028200
     21 H4           3.7700    -1.1920    -1.5500 h1         1 K0V       0.028200
     22 H5           3.8670    -0.0870    -0.1660 h1         1 K0V       0.028200
     23 H6           5.1320     0.7360    -2.1740 hc         1 K0V       0.034450
     24 H7           3.8520     1.8450    -1.6540 hc         1 K0V       0.034450
     25 H8           0.5740     1.0830     2.5890 hc         1 K0V       0.015256
     26 H9          -0.2580     2.0930     1.3990 hc         1 K0V       0.015256
     27 H10         -1.1420     1.4590     2.7940 hc         1 K0V       0.015256
     28 H11          4.0010     3.9280    -6.0190 h1         1 K0V       0.001700
     29 H12          5.2610     2.7900    -6.5170 h1         1 K0V       0.001700
     30 H13          3.7710     2.9270    -7.4600 h1         1 K0V       0.001700
     31 H14         -2.4980    -0.8830     0.4200 hc         1 K0V       0.015256
     32 H15         -2.7780    -0.0030     1.9290 hc         1 K0V       0.015256
     33 H16         -2.4990     0.8860     0.4250 hc         1 K0V       0.015256
     34 H17          3.5970    -0.2110    -3.8820 hc         1 K0V       0.046700
     35 H18          1.7150     1.9650    -2.9010 hc         1 K0V       0.034450
     36 H19          1.4460     0.9420    -4.3240 hc         1 K0V       0.034450
     37 H20         -0.3470    -2.1090     1.4140 hc         1 K0V       0.015256
     38 H21          0.6170    -1.1160     2.5150 hc         1 K0V       0.015256
     39 H22         -1.0950    -1.4050     2.8550 hc         1 K0V       0.015256
@<TRIPOS>BOND
     1     1     5 1   
     2     1     6 1   
     3     1    18 1   
     4     2     8 1   
     5     2    14 1   
     6     2    19 1   
     7     2    20 1   
     8     3     4 1   
     9     3     8 1   
    10     3    21 1   
    11     3    22 1   
    12     4    13 1   
    13     4    23 1   
    14     4    24 1   
    15     5     8 1   
    16     5    17 2   
    17     6     7 1   
    18     6    12 1   
    19     6    15 1   
    20     7    25 1   
    21     7    26 1   
    22     7    27 1   
    23     9    10 1   
    24     9    28 1   
    25     9    29 1   
    26     9    30 1   
    27    10    11 1   
    28    11    13 1   
    29    11    16 2   
    30    12    31 1   
    31    12    32 1   
    32    12    33 1   
    33    13    14 1   
    34    13    34 1   
    35    14    35 1   
    36    14    36 1   
    37    15    37 1   
    38    15    38 1   
    39    15    39 1   
@<TRIPOS>SUBSTRUCTURE
     1 K0V         1 TEMP              0 ****  ****    0 ROOT
