@<TRIPOS>MOLECULE
molecule
   46    48     1     0     0
SMALL
bcc


@<TRIPOS>ATOM
      1 N1           0.0000     0.0000     0.0000 nv         1 K10      -1.063500
      2 C1           1.3800     0.0000     0.0000 ca         1 K10       0.787200
      3 N2           2.0610     0.0000     1.1410 nb         1 K10      -0.810000
      4 C2           3.3820    -0.0010     1.1500 ca         1 K10       0.733900
      5 N3           4.0990    -0.0000     0.0470 nb         1 K10      -0.784000
      6 C3           3.5090    -0.0000    -1.1470 ca         1 K10       0.515800
      7 C4           2.1020     0.0050    -1.2100 ca         1 K10      -0.504500
      8 C5           1.7490     0.0000    -2.5760 cc         1 K10       0.405900
      9 N4           2.8410     0.0000    -3.2850 nd         1 K10      -0.506100
     10 N5           3.9540    -0.0000    -2.4350 na         1 K10      -0.019800
     11 C6           5.3580    -0.0010    -2.8580 c3         1 K10       0.094700
     12 C7           5.4290    -0.0000    -4.3860 c3         1 K10      -0.100100
     13 C8           6.0550     1.2480    -2.3140 c3         1 K10      -0.100100
     14 C9           6.0530    -1.2500    -2.3150 c3         1 K10      -0.100100
     15 C10          0.3440     0.0010    -3.1230 c3         1 K10      -0.031400
     16 C11         -0.0860     1.4190    -3.4000 ca         1 K10      -0.082300
     17 C12         -0.8910     2.0860    -2.4940 ca         1 K10      -0.114000
     18 C13         -1.2900     3.3840    -2.7500 ca         1 K10      -0.091300
     19 C14         -0.8760     4.0190    -3.9070 ca         1 K10      -0.121000
     20 C15         -0.0680     3.3530    -4.8090 ca         1 K10      -0.126000
     21 C16          0.3270     2.0530    -4.5560 ca         1 K10      -0.070300
     22 C17          1.2070     1.3270    -5.5410 c3         1 K10      -0.051800
     23 C18         -2.1710     4.1090    -1.7660 c3         1 K10      -0.046800
     24 HN11        -0.5000    -0.8060    -0.3200 hn         1 K10       0.442300
     25 HN12        -0.5000     0.7780     0.3840 hn         1 K10       0.442300
     26 H2           3.8960    -0.0010     2.1030 h5         1 K10       0.059100
     27 H71          6.4640    -0.0710    -4.6990 hc         1 K10       0.050478
     28 H72          4.9990     0.9180    -4.7680 hc         1 K10       0.050478
     29 H73          4.8760    -0.8470    -4.7740 hc         1 K10       0.050478
     30 H81          6.1900     1.1490    -1.2440 hc         1 K10       0.050478
     31 H82          5.4470     2.1200    -2.5220 hc         1 K10       0.050478
     32 H83          7.0210     1.3590    -2.7920 hc         1 K10       0.050478
     33 H91          5.4370    -2.1190    -2.5080 hc         1 K10       0.050478
     34 H92          7.0120    -1.3710    -2.8050 hc         1 K10       0.050478
     35 H93          6.2040    -1.1440    -1.2480 hc         1 K10       0.050478
     36 H101         0.3140    -0.5720    -4.0420 hc         1 K10       0.063700
     37 H102        -0.3260    -0.4450    -2.3970 hc         1 K10       0.063700
     38 H12         -1.2160     1.5880    -1.5890 ha         1 K10       0.128000
     39 H14         -1.1860     5.0380    -4.1060 ha         1 K10       0.129000
     40 H15          0.2560     3.8510    -5.7150 ha         1 K10       0.131000
     41 H171         1.1410     1.8100    -6.5080 hc         1 K10       0.048367
     42 H172         0.8790     0.2980    -5.6280 hc         1 K10       0.048367
     43 H173         2.2330     1.3510    -5.1940 hc         1 K10       0.048367
     44 H181        -2.3690     5.1100    -2.1290 hc         1 K10       0.042033
     45 H182        -3.1070     3.5730    -1.6560 hc         1 K10       0.042033
     46 H183        -1.6720     4.1650    -0.8060 hc         1 K10       0.042033
@<TRIPOS>BOND
     1     1     2 1
     2     1    24 1
     3     1    25 1
     4     2     3 ar
     5     2     7 ar
     6     3     4 ar
     7     4     5 ar
     8     4    26 1
     9     5     6 ar
    10     6     7 ar
    11     6    10 1
    12     7     8 1
    13     8     9 2
    14     8    15 1
    15     9    10 1
    16    10    11 1
    17    11    12 1
    18    11    13 1
    19    11    14 1
    20    12    27 1
    21    12    28 1
    22    12    29 1
    23    13    30 1
    24    13    31 1
    25    13    32 1
    26    14    33 1
    27    14    34 1
    28    14    35 1
    29    15    16 1
    30    15    36 1
    31    15    37 1
    32    16    17 ar
    33    16    21 ar
    34    17    18 ar
    35    17    38 1
    36    18    19 ar
    37    18    23 1
    38    19    20 ar
    39    19    39 1
    40    20    21 ar
    41    20    40 1
    42    21    22 1
    43    22    41 1
    44    22    42 1
    45    22    43 1
    46    23    44 1
    47    23    45 1
    48    23    46 1
@<TRIPOS>SUBSTRUCTURE
     1 K10         1 TEMP              0 ****  ****    0 ROOT
