@<TRIPOS>MOLECULE
molecule
   59    64     1     0     0
SMALL
bcc


@<TRIPOS>ATOM
      1 C38          0.0000     0.0000     0.0000 c3         1 K11       0.238100
      2 N37          1.4640     0.0000     0.0000 nu         1 K11      -0.899900
      3 C35          2.1570     0.0000     1.1980 ca         1 K11       0.945900
      4 N30          3.4810    -0.0010     1.1790 nb         1 K11      -0.775000
      5 N34          1.4770     0.0060     2.3360 nb         1 K11      -0.804000
      6 C33          2.1020     0.0060     3.5040 ca         1 K11       0.500200
      7 C32          3.4850    -0.0010     3.5310 ca         1 K11      -0.445600
      8 C31          4.1750    -0.0010     2.3150 cp         1 K11       0.568800
      9 C24          5.6560    -0.0010     2.2910 cp         1 K11      -0.294800
     10 C25          6.3860    -0.0020     3.4820 ca         1 K11      -0.042000
     11 C26          7.7690    -0.0020     3.4060 ca         1 K11      -0.302300
     12 C27          8.3820    -0.0030     2.1660 ca         1 K11       0.475200
     13 N28          7.6710    -0.0020     1.0550 nb         1 K11      -0.758000
     14 C29          6.3490    -0.0070     1.0730 ca         1 K11       0.686600
     15 O36          5.6590    -0.0120    -0.0940 os         1 K11      -0.310400
     16 C20          6.3640     0.0870    -1.2510 ca         1 K11       0.085100
     17 C21          6.4810     1.2950    -1.8810 ca         1 K11      -0.093000
     18 C22          7.1990     1.4180    -3.0670 ca         1 K11      -0.163000
     19 C13          6.9810    -1.0540    -1.8040 ca         1 K11      -0.014000
     20 C18          6.8830    -2.3080    -1.1780 ca         1 K11      -0.096000
     21 C17          7.4920    -3.3900    -1.7390 ca         1 K11      -0.129000
     22 C16          8.2100    -3.2720    -2.9260 ca         1 K11      -0.119000
     23 C15          8.3260    -2.0720    -3.5590 ca         1 K11      -0.130000
     24 C14          7.7130    -0.9350    -3.0110 ca         1 K11      -0.049000
     25 C23          7.8110     0.3250    -3.6400 ca         1 K11       0.162600
     26 N19          8.5280     0.4640    -4.8310 nu         1 K11      -0.709600
     27 C12          8.7950     1.7200    -5.3330 cc         1 K11       0.678700
     28 N5           9.3770     1.9750    -6.5430 na         1 K11      -0.289300
     29 C7           9.4690     3.3500    -6.6720 ca         1 K11      -0.106200
     30 C8           9.9570     4.1920    -7.6590 ca         1 K11      -0.067000
     31 C9           9.9020     5.5600    -7.4850 ca         1 K11      -0.183300
     32 C39         10.4340     6.4740    -8.5590 c3         1 K11       0.678200
     33 F2           9.4080     6.7820    -9.4590 f          1 K11      -0.224967
     34 F3          10.9110     7.6520    -7.9750 f          1 K11      -0.224967
     35 F1          11.4760     5.8360    -9.2400 f          1 K11      -0.224967
     36 C10          9.3610     6.1000    -6.3270 ca         1 K11      -0.094000
     37 C11          8.8720     5.2780    -5.3360 ca         1 K11      -0.092000
     38 C6           8.9200     3.8920    -5.4970 ca         1 K11       0.147400
     39 N4           8.5230     2.8470    -4.7240 nd         1 K11      -0.661100
     40 H38         -0.3610    -0.0020    -1.0210 h1         1 K11       0.040033
     41 H38A        -0.3610    -0.8840     0.5120 h1         1 K11       0.040033
     42 H38B        -0.3610     0.8860     0.5090 h1         1 K11       0.040033
     43 HN37         1.9640    -0.0070    -0.8670 hn         1 K11       0.459800
     44 H33          1.5360     0.0080     4.4270 h4         1 K11       0.025100
     45 H32          4.0210    -0.0010     4.4730 ha         1 K11       0.140000
     46 H25          5.8820    -0.0010     4.4410 ha         1 K11       0.147000
     47 H26          8.3660    -0.0030     4.3100 ha         1 K11       0.143000
     48 H27          9.4630    -0.0010     2.1070 h4         1 K11       0.027100
     49 H21          6.0080     2.1690    -1.4490 ha         1 K11       0.147000
     50 H22          7.2760     2.3870    -3.5460 ha         1 K11       0.206000
     51 H18          6.3270    -2.4130    -0.2540 ha         1 K11       0.145000
     52 H17          7.4150    -4.3560    -1.2550 ha         1 K11       0.130000
     53 H16          8.6850    -4.1480    -3.3520 ha         1 K11       0.127000
     54 H15          8.8880    -1.9950    -4.4820 ha         1 K11       0.114000
     55 HN19         8.8280    -0.3490    -5.3310 hn         1 K11       0.456800
     56 HN5          9.7970     1.2980    -7.1480 hn         1 K11       0.303700
     57 H8          10.3190     3.7800    -8.5930 ha         1 K11       0.142000
     58 H10          9.3240     7.1750    -6.2020 ha         1 K11       0.150000
     59 H11          8.4510     5.7060    -4.4340 ha         1 K11       0.151000
@<TRIPOS>BOND
     1     1     2 1
     2     2     3 1
     3     3     4 ar
     4     3     5 ar
     5     4     8 ar
     6     5     6 ar
     7     6     7 ar
     8     7     8 ar
     9     8     9 1
    10     9    10 ar
    11     9    14 ar
    12    10    11 ar
    13    11    12 ar
    14    12    13 ar
    15    13    14 ar
    16    14    15 1
    17    15    16 1
    18    16    17 ar
    19    16    19 ar
    20    17    18 ar
    21    18    25 ar
    22    19    20 ar
    23    19    24 ar
    24    20    21 ar
    25    21    22 ar
    26    22    23 ar
    27    23    24 ar
    28    24    25 ar
    29    25    26 1
    30    26    27 1
    31    27    28 1
    32    27    39 2
    33    28    29 1
    34    29    30 ar
    35    29    38 ar
    36    30    31 ar
    37    31    32 1
    38    31    36 ar
    39    32    33 1
    40    32    34 1
    41    32    35 1
    42    36    37 ar
    43    37    38 ar
    44    38    39 1
    45     1    40 1
    46     1    41 1
    47     1    42 1
    48     2    43 1
    49     6    44 1
    50     7    45 1
    51    10    46 1
    52    11    47 1
    53    12    48 1
    54    17    49 1
    55    18    50 1
    56    20    51 1
    57    21    52 1
    58    22    53 1
    59    23    54 1
    60    26    55 1
    61    28    56 1
    62    30    57 1
    63    36    58 1
    64    37    59 1
@<TRIPOS>SUBSTRUCTURE
     1 K11         1 TEMP              0 ****  ****    0 ROOT
