@<TRIPOS>MOLECULE
K12
   43    37     1     0     0
SMALL
bcc


@<TRIPOS>ATOM
      1 P        -127.5230  -52.1890  -26.8120 p3        1 K12      2.395000
      2 C1       -124.5360  -50.5750  -26.3450 c1        1 K12      0.346000
      3 C2       -123.3270  -50.7070  -25.8550 c2        1 K12     -0.486000
      4 C3         36.9160   16.6700    7.6920 c3        1 K12     -0.270000
      5 C4         40.2970   17.1400    9.2190 c3        1 K12     -0.184000
      6 C5         41.6560   17.3300    9.8410 c3        1 K12     -0.257500
      7 C6         42.6540   16.3090    9.3360 c3        1 K12     -0.130000
      8 C7         44.0190   16.5180    9.9540 c3        1 K12     -0.164000
      9 C8         45.0220   15.4980    9.4570 c3        1 K12     -0.130000
     10 C9         46.3990   15.8120    9.9810 c3        1 K12     -0.257500
     11 C10        47.4430   14.9160    9.3920 c3        1 K12     -0.184000
     12 C11        46.8560   18.5120    9.4860 c1        1 K12     -0.349000
     13 C12        46.9520   19.7110    9.3290 c1        1 K12     -0.445000
     14 O3'        47.0370   21.0530    9.2220 oh        1 K12     -0.226000
     15 O5'      -125.6290  -50.4330  -26.7970 o         1 K12     -0.182000
     16 OP1      -126.2460  -52.6000  -26.1890 o         1 K12     -1.131333
     17 OP2      -128.5810  -51.5870  -25.9830 o         1 K12     -1.131333
     18 H10        47.2390   13.8350    9.6040 hc        1 K12      0.047667
     19 H10A       47.4910   15.0440    8.2830 hc        1 K12      0.047667
     20 H1       -123.0340  -51.6520  -25.3860 ha        1 K12      0.161000
     21 H11        48.4480   15.1690    9.8110 hc        1 K12      0.047667
     22 H1A        36.6840   15.5850    7.6340 hc        1 K12      0.067250
     23 H11A       46.6560   16.9910    9.7270 hc        1 K12      0.125500
     24 H2         37.9280   16.8110    8.1360 hc        1 K12      0.067250
     25 H12        49.2030   17.0320    8.1300 ha        1 K12     -0.001000
     26 H2A      -122.5950  -49.9000  -25.8990 ha        1 K12      0.161000
     27 H12A       48.6530   17.2450    8.4710 ha        1 K12     -0.001000
     28 H3         39.5780   17.9020    9.6070 hc        1 K12      0.047667
     29 H3A        36.8970   17.1090    6.6710 hc        1 K12      0.067250
     30 H4         36.1580   17.1780    8.3270 hc        1 K12      0.067250
     31 H4A        39.8940   16.1250    9.4510 hc        1 K12      0.047667
     32 H5         40.3560   17.2460    8.1080 hc        1 K12      0.047667
     33 H5A        42.0370   18.3610    9.6140 hc        1 K12      0.125500
     34 H6         41.5730   17.2490   10.9570 hc        1 K12      0.125500
     35 H6A        42.7330   16.3850    8.2200 hc        1 K12      0.049000
     36 H7         42.2840   15.2760    9.5700 hc        1 K12      0.049000
     37 H7A        43.9400   16.4520   11.0710 hc        1 K12      0.095000
     38 H8         44.4060   17.5460    9.7100 hc        1 K12      0.095000
     39 H8A        44.6960   14.4670    9.7650 hc        1 K12      0.049000
     40 H9         45.0370   15.5100    8.3350 hc        1 K12      0.049000
     41 H9A        46.4070   15.7310   11.0960 hc        1 K12      0.125500
     42 OP3      -127.7580  -52.4540  -28.2410 o         1 K12     -1.131333
     43 HO3'       47.3730   21.2090    8.3250 ho        1 K12      0.156000
@<TRIPOS>BOND
     1    1   16 1   
     2    1   17 1   
     3    1   42 1   
     4    2    3 1   
     5    2   15 1   
     6    3   20 1   
     7    3   26 1   
     8    4   22 1   
     9    4   24 1   
    10    4   29 1   
    11    4   30 1   
    12    5    6 1   
    13    5   28 1   
    14    5   31 1   
    15    5   32 1   
    16    6    7 1   
    17    6   33 1   
    18    6   34 1   
    19    7    8 1   
    20    7   35 1   
    21    7   36 1   
    22    8    9 1   
    23    8   37 1   
    24    8   38 1   
    25    9   10 1   
    26    9   39 1   
    27    9   40 1   
    28   10   11 1   
    29   10   23 1   
    30   10   41 1   
    31   11   18 1   
    32   11   19 1   
    33   11   21 1   
    34   12   13 1   
    35   13   14 1   
    36   14   43 1   
    37   25   27 1   
@<TRIPOS>SUBSTRUCTURE
     1 K12         1 TEMP              0 ****  ****    0 ROOT
