@<TRIPOS>MOLECULE
molecule
   43    42     1     0     0
SMALL
bcc


@<TRIPOS>ATOM
      1 P            0.0000     0.0000     0.0000 p5         1 K12       1.184900
      2 C1           2.3870     0.9820     0.6880 c3         1 K12       0.224400
      3 C2           3.8750     0.6890     0.4830 c3         1 K12      -0.094400
      4 C3           4.7080     1.7410     1.2190 c3         1 K12      -0.083400
      5 C4           6.1960     1.4480     1.0140 c3         1 K12      -0.082400
      6 C5           7.0280     2.5000     1.7500 c3         1 K12      -0.083400
      7 C6           8.5170     2.2070     1.5450 c3         1 K12      -0.083400
      8 C7           9.3490     3.2590     2.2810 c3         1 K12      -0.082400
      9 C8          10.8370     2.9660     2.0760 c3         1 K12      -0.082400
     10 C9          11.6700     4.0170     2.8110 c3         1 K12      -0.080400
     11 C10         13.1570     3.7250     2.6060 c3         1 K12      -0.082400
     12 C11         13.9900     4.7770     3.3430 c3         1 K12      -0.081400
     13 C12         15.4780     4.4840     3.1380 c3         1 K12       0.138400
     14 O3'         16.2560     5.4660     3.8250 oh         1 K12      -0.614800
     15 O5'          1.6090     0.0000     0.0000 os         1 K12      -0.581200
     16 OP1         -0.4940     0.0000     1.3960 o          1 K12      -0.913500
     17 OP2         -0.5370     1.3130    -0.7590 o          1 K12      -0.913500
     18 H10         13.3890     3.7570     1.5490 hc         1 K12       0.039700
     19 H10A        13.3890     2.7420     2.9980 hc         1 K12       0.039700
     20 H1           2.1550     0.9500     1.7460 h1         1 K12       0.007200
     21 H11         13.7580     5.7600     2.9520 hc         1 K12       0.052700
     22 H1A          2.1550     1.9650     0.2970 h1         1 K12       0.007200
     23 H11A        13.7580     4.7450     4.4010 hc         1 K12       0.052700
     24 H2           4.1070    -0.2940     0.8740 hc         1 K12       0.033200
     25 H12         15.7100     4.5160     2.0800 h1         1 K12       0.017700
     26 H2A          4.1070     0.7210    -0.5750 hc         1 K12       0.033200
     27 H12A        15.7100     3.5010     3.5290 h1         1 K12       0.017700
     28 H3           4.4760     2.7240     0.8280 hc         1 K12       0.034200
     29 H3A          4.4770     1.7100     2.2770 hc         1 K12       0.034200
     30 H4           6.4270     1.4800    -0.0440 hc         1 K12       0.034700
     31 H4A          6.4270     0.4650     1.4050 hc         1 K12       0.034700
     32 H5           6.7960     3.4830     1.3590 hc         1 K12       0.037200
     33 H5A          6.7970     2.4690     2.8080 hc         1 K12       0.037200
     34 H6           8.7480     2.2390     0.4870 hc         1 K12       0.037700
     35 H6A          8.7490     1.2240     1.9360 hc         1 K12       0.037700
     36 H7           9.1170     3.2270     3.3390 hc         1 K12       0.039700
     37 H7A          9.1160     4.2420     1.8890 hc         1 K12       0.039700
     38 H8          11.0680     2.9980     1.0180 hc         1 K12       0.038700
     39 H8A         11.0690     1.9830     2.4670 hc         1 K12       0.038700
     40 H9          11.4380     5.0000     2.4200 hc         1 K12       0.041700
     41 H9A         11.4380     3.9860     3.8690 hc         1 K12       0.041700
     42 OP3         -0.5370    -1.3160    -0.7580 o          1 K12      -0.913500
     43 HO3'        17.1730     5.2860     3.6990 ho         1 K12       0.395000
@<TRIPOS>BOND
     1     1    15 1
     2     1    16 1
     3     1    17 1
     4     2     3 1
     5     2    15 1
     6     2    20 1
     7     2    22 1
     8     3     4 1
     9     3    24 1
    10     3    26 1
    11     4     5 1
    12     4    28 1
    13     4    29 1
    14     5     6 1
    15     5    30 1
    16     5    31 1
    17     6     7 1
    18     6    32 1
    19     6    33 1
    20     7     8 1
    21     7    34 1
    22     7    35 1
    23     8     9 1
    24     8    36 1
    25     8    37 1
    26     9    10 1
    27     9    38 1
    28     9    39 1
    29    10    11 1
    30    10    40 1
    31    10    41 1
    32    11    12 1
    33    11    18 1
    34    11    19 1
    35    12    13 1
    36    12    21 1
    37    12    23 1
    38    13    14 1
    39    13    25 1
    40    13    27 1
    41     1    42 1
    42    14    43 1
@<TRIPOS>SUBSTRUCTURE
     1 K12         1 TEMP              0 ****  ****    0 ROOT
