@<TRIPOS>MOLECULE
molecule
   78    81     1     0     0
SMALL
bcc


@<TRIPOS>ATOM
      1 N1           0.0000     0.0000     0.0000 nv         1 K13      -0.912200
      2 C2           1.3970     0.0000     0.0000 ca         1 K13       0.249600
      3 C3           2.0940     0.0000     1.2010 ca         1 K13      -0.231500
      4 C4           3.4750    -0.0010     1.1970 ca         1 K13       0.012500
      5 C5           4.1640    -0.0010    -0.0020 ca         1 K13      -0.376500
      6 C6           3.4730     0.0000    -1.2000 ca         1 K13       0.012500
      7 C7           2.0920    -0.0050    -1.2030 ca         1 K13      -0.231500
      8 S8           5.9260    -0.0010    -0.0020 sy         1 K13       1.425200
      9 O9           6.3270     0.5440    -1.2530 o          1 K13      -0.638800
     10 O10          6.3280     0.5440     1.2470 o          1 K13      -0.638800
     11 N11          6.4160    -1.5820    -0.0030 n3         1 K13      -0.811500
     12 C12          6.6330    -2.2820    -1.2720 c3         1 K13       0.239800
     13 C13          8.1050    -2.1700    -1.6720 c3         1 K13      -0.093700
     14 C14          8.9690    -2.9150    -0.6540 c3         1 K13      -0.092100
     15 C15          8.3050    -2.7840    -3.0590 c3         1 K13      -0.078400
     16 C16          6.6330    -2.2820     1.2660 c3         1 K13       0.220800
     17 C17          5.3620    -3.0370     1.6570 c3         1 K13       0.104100
     18 C18          9.7490    -2.5610    -3.5120 c3         1 K13      -0.090100
     19 O18          5.1040    -4.0650     0.6970 oh         1 K13      -0.601800
     20 C19          5.5450    -3.6640     3.0400 c3         1 K13       0.122700
     21 N20          4.2890    -4.2860     3.4650 ns         1 K13      -0.568900
     22 C21          4.0280    -4.4490     4.7780 c          1 K13       0.744100
     23 O22          4.8360    -4.0810     5.6080 o          1 K13      -0.595000
     24 O23          2.8730    -5.0190     5.1680 os         1 K13      -0.433900
     25 C24          2.6590    -5.1630     6.5970 c3         1 K13       0.138100
     26 C25          1.9200    -3.9340     7.1560 c3         1 K13       0.115400
     27 O26          0.6420    -4.3810     7.6300 os         1 K13      -0.423600
     28 C27          0.7580    -5.7760     7.9710 c3         1 K13       0.332900
     29 O28         -0.5030    -6.4160     7.7340 os         1 K13      -0.397600
     30 C29         -0.5830    -6.8750     6.3810 c3         1 K13       0.128400
     31 C30          0.7480    -6.5200     5.6870 c3         1 K13      -0.097400
     32 C31          1.7180    -6.3510     6.8830 c3         1 K13      -0.139700
     33 C32          6.6430    -4.7280     2.9750 c3         1 K13      -0.048100
     34 C33          6.2020    -6.3500     4.8290 ca         1 K13      -0.116000
     35 C34          6.4470    -6.8380     6.1000 ca         1 K13      -0.122000
     36 C35          7.3980    -6.2340     6.9010 ca         1 K13      -0.126000
     37 C36          8.1060    -5.1440     6.4300 ca         1 K13      -0.122000
     38 C37          7.8620    -4.6570     5.1600 ca         1 K13      -0.116000
     39 C38          6.9100    -5.2600     4.3600 ca         1 K13      -0.070300
     40 HN1         -0.5000    -0.1950    -0.8440 hn         1 K13       0.435800
     41 HN1A        -0.5000     0.1910     0.8450 hn         1 K13       0.435800
     42 H3           1.5550    -0.0000     2.1410 ha         1 K13       0.136500
     43 H4           4.0190    -0.0010     2.1340 ha         1 K13       0.149000
     44 H6           4.0160    -0.0020    -2.1380 ha         1 K13       0.149000
     45 H7           1.5520    -0.0040    -2.1420 ha         1 K13       0.136500
     46 H12          6.0150    -1.8350    -2.0410 h1         1 K13       0.059200
     47 H12A         6.3680    -3.3260    -1.1580 h1         1 K13       0.059200
     48 H13          8.3940    -1.1260    -1.6950 hc         1 K13       0.069700
     49 H14          9.0430    -2.3290     0.2550 hc         1 K13       0.035700
     50 H14A         9.9590    -3.0710    -1.0650 hc         1 K13       0.035700
     51 H14B         8.5160    -3.8740    -0.4290 hc         1 K13       0.035700
     52 H15          8.1000    -3.8470    -3.0160 hc         1 K13       0.040700
     53 H15A         7.6290    -2.3140    -3.7630 hc         1 K13       0.040700
     54 H16          6.8770    -1.5630     2.0380 h1         1 K13       0.082200
     55 H16A         7.4510    -2.9840     1.1550 h1         1 K13       0.082200
     56 H17          4.5260    -2.3490     1.6810 h1         1 K13       0.045700
     57 H18         10.3650    -3.3860    -3.1750 hc         1 K13       0.035033
     58 H18A        10.1220    -1.6360    -3.0890 hc         1 K13       0.035033
     59 H18B         9.7830    -2.5030    -4.5930 hc         1 K13       0.035033
     60 HO18         4.1950    -4.0410     0.4470 ho         1 K13       0.403000
     61 H19          5.8280    -2.8970     3.7500 h1         1 K13       0.091700
     62 HN20         3.6180    -4.5760     2.7820 hn         1 K13       0.319500
     63 H24          3.6020    -5.3000     7.1130 h1         1 K13       0.089700
     64 H25          1.7840    -3.1990     6.3720 h1         1 K13       0.064700
     65 H25A         2.4860    -3.5070     7.9750 h1         1 K13       0.064700
     66 H27          1.1270    -5.9320     8.9770 h2         1 K13       0.094700
     67 H29         -0.7290    -7.9490     6.3670 h1         1 K13       0.048700
     68 H29A        -1.4030    -6.3810     5.8750 h1         1 K13       0.048700
     69 H30          1.0720    -7.3300     5.0440 hc         1 K13       0.066700
     70 H30A         0.6560    -5.5930     5.1340 hc         1 K13       0.066700
     71 H31          2.2230    -7.2610     7.1810 hc         1 K13       0.088700
     72 H32          7.5490    -4.2890     2.5760 hc         1 K13       0.062200
     73 H32A         6.3220    -5.5400     2.3320 hc         1 K13       0.062200
     74 H34          5.8920    -7.6920     6.4690 ha         1 K13       0.124000
     75 H35          7.5900    -6.6160     7.8960 ha         1 K13       0.124000
     76 H36          8.8520    -4.6710     7.0570 ha         1 K13       0.124000
     77 H37          8.4170    -3.8030     4.7920 ha         1 K13       0.124500
     78 H33          5.4560    -6.8230     4.2020 ha         1 K13       0.124500
@<TRIPOS>BOND
     1     1     2 1
     2     2     3 ar
     3     2     7 ar
     4     3     4 ar
     5     4     5 ar
     6     5     6 ar
     7     5     8 1
     8     6     7 ar
     9     8     9 2
    10     8    10 2
    11     8    11 1
    12    11    12 1
    13    11    16 1
    14    12    13 1
    15    13    14 1
    16    13    15 1
    17    15    18 1
    18    16    17 1
    19    17    19 1
    20    17    20 1
    21    20    21 1
    22    20    33 1
    23    21    22 1
    24    22    23 2
    25    22    24 1
    26    24    25 1
    27    25    26 1
    28    25    32 1
    29    26    27 1
    30    27    28 1
    31    28    29 1
    32    28    32 1
    33    29    30 1
    34    30    31 1
    35    31    32 1
    36    33    39 1
    37    34    35 ar
    38    34    39 ar
    39    35    36 ar
    40    36    37 ar
    41    37    38 ar
    42    38    39 ar
    43     1    40 1
    44     1    41 1
    45     3    42 1
    46     4    43 1
    47     6    44 1
    48     7    45 1
    49    12    46 1
    50    12    47 1
    51    13    48 1
    52    14    49 1
    53    14    50 1
    54    14    51 1
    55    15    52 1
    56    15    53 1
    57    16    54 1
    58    16    55 1
    59    17    56 1
    60    18    57 1
    61    18    58 1
    62    18    59 1
    63    19    60 1
    64    20    61 1
    65    21    62 1
    66    25    63 1
    67    26    64 1
    68    26    65 1
    69    28    66 1
    70    30    67 1
    71    30    68 1
    72    31    69 1
    73    31    70 1
    74    32    71 1
    75    33    72 1
    76    33    73 1
    77    34    78 1
    78    35    74 1
    79    36    75 1
    80    37    76 1
    81    38    77 1
@<TRIPOS>SUBSTRUCTURE
     1 K13         1 TEMP              0 ****  ****    0 ROOT
