@<TRIPOS>MOLECULE
K14
   80    83     1     0     0
SMALL
bcc


@<TRIPOS>ATOM
      1 C1           0.0000     0.0000     0.0000 c3         1 K14       0.245700
      2 O1           1.4280     0.0000     0.0000 os         1 K14      -0.303900
      3 C2           2.0450     0.0000     1.2110 ca         1 K14       0.202100
      4 C3           3.4300    -0.0010     1.2860 ca         1 K14      -0.211000
      5 C4           4.0550    -0.0010     2.5180 ca         1 K14       0.043000
      6 C5           3.3010    -0.0010     3.6770 ca         1 K14      -0.209500
      7 C6           1.9190    -0.0010     3.6050 ca         1 K14       0.043000
      8 C7           1.2900     0.0060     2.3750 ca         1 K14      -0.211000
      9 S8           4.1000    -0.0000     5.2470 sy         1 K14       1.049200
     10 O9           3.1670    -0.5440     6.1720 o          1 K14      -0.586800
     11 O10          5.3950    -0.5460     5.0380 o          1 K14      -0.586800
     12 N11          4.3220     1.5820     5.6840 n3         1 K14      -0.516500
     13 C12          3.2910     2.2820     6.4520 c3         1 K14       0.232800
     14 C13          3.6030     2.1690     7.9450 c3         1 K14      -0.080700
     15 C14          4.9020     2.9150     8.2530 c3         1 K14      -0.012100
     16 C15          2.4580     2.7850     8.7540 c3         1 K14      -0.020400
     17 C16          5.5520     2.2800     5.3010 c3         1 K14       0.191800
     18 C17          5.3220     3.0350     3.9900 c3         1 K14       0.144100
     19 C18          2.7100     2.5610    10.2460 c3         1 K14       0.002900
     20 O18          4.3520     4.0630     4.1950 oh         1 K14      -0.579800
     21 C19          6.6390     3.6620     3.5250 c3         1 K14       0.008700
     22 N20          6.4470     4.2830     2.2120 ns         1 K14      -0.168900
     23 C21          7.4980     4.4460     1.3840 c          1 K14       0.674100
     24 O22          8.6040     4.0780     1.7260 o          1 K14      -0.642000
     25 O23          7.3220     5.0160     0.1770 os         1 K14      -0.413900
     26 C24          8.4990     5.1590    -0.6620 c3         1 K14       0.170100
     27 C25          8.6590     3.9300    -1.5740 c3         1 K14       0.190400
     28 O26          8.5020     4.3770    -2.9280 os         1 K14      -0.416600
     29 C27          8.8600     5.7710    -2.9790 c3         1 K14       0.398900
     30 O28          8.0750     6.4110    -3.9960 os         1 K14      -0.398600
     31 C29          6.8340     6.8710    -3.4530 c3         1 K14       0.216400
     32 C30          6.8200     6.5170    -1.9510 c3         1 K14      -0.051400
     33 C31          8.3260     6.3470    -1.6300 c3         1 K14      -0.124700
     34 C32          7.0800     4.7260     4.5330 c3         1 K14       0.011900
     35 C33          8.5330     6.3470     3.2980 ca         1 K14      -0.092000
     36 C34          9.7750     6.8330     2.9380 ca         1 K14      -0.092500
     37 C35         10.9210     6.2300     3.4230 ca         1 K14      -0.099000
     38 C36         10.8230     5.1400     4.2670 ca         1 K14      -0.092500
     39 C37          9.5810     4.6530     4.6260 ca         1 K14      -0.092000
     40 C38          8.4340     5.2570     4.1410 ca         1 K14      -0.079300
     41 H1          -0.3610    -0.0060    -1.0210 h1         1 K14       0.000700
     42 H1A         -0.3610     0.8870     0.5050 h1         1 K14       0.000700
     43 H1B         -0.3610    -0.8820     0.5160 h1         1 K14       0.000700
     44 H3           4.0220    -0.0020     0.3780 ha         1 K14       0.126000
     45 H4           5.1360    -0.0020     2.5760 ha         1 K14       0.123000
     46 H6           1.3300     0.0020     4.5140 ha         1 K14       0.123000
     47 H7           0.2080     0.0060     2.3200 ha         1 K14       0.126000
     48 H12          2.3250     1.8350     6.2500 h1         1 K14       0.027200
     49 H12A         3.2730     3.3260     6.1650 h1         1 K14       0.027200
     50 H13          3.7140     1.1250     8.2140 hc         1 K14       0.051700
     51 H14          5.7460     2.3280     7.9110 hc         1 K14       0.009033
     52 H14A         4.8980     3.8720     7.7450 hc         1 K14       0.009033
     53 H14B         4.9830     3.0750     9.3220 hc         1 K14       0.009033
     54 H15          1.5230     2.3160     8.4710 hc         1 K14       0.012200
     55 H15A         2.4050     3.8480     8.5520 hc         1 K14       0.012200
     56 H16          6.3500     1.5600     5.1680 h1         1 K14       0.055700
     57 H16A         5.8250     2.9820     6.0790 h1         1 K14       0.055700
     58 H17          4.9640     2.3460     3.2350 h1         1 K14       0.011700
     59 H18          3.2560     1.6360    10.3860 hc         1 K14       0.003033
     60 H18A         1.7620     2.5020    10.7680 hc         1 K14       0.003033
     61 H18B         3.2900     3.3860    10.6420 hc         1 K14       0.003033
     62 HO18         3.7810     4.1110     3.4460 ho         1 K14       0.389000
     63 H19          7.3990     2.8940     3.4540 h1         1 K14       0.070700
     64 HN20         5.5310     4.5590     1.9180 hn         1 K14       0.169500
     65 H24          9.3870     5.2960    -0.0560 h1         1 K14       0.055700
     66 H25          7.8970     3.1970    -1.3390 h1         1 K14       0.021200
     67 H25A         9.6440     3.5000    -1.4410 h1         1 K14       0.021200
     68 H27          9.9240     5.9280    -3.1080 h2         1 K14       0.040700
     69 H29          6.7560     7.9440    -3.5770 h1         1 K14       0.006200
     70 H29A         6.0100     6.3760    -3.9530 h1         1 K14       0.006200
     71 H30          6.2850     5.5900    -1.7810 hc         1 K14       0.034200
     72 H30A         6.3950     7.3270    -1.3710 hc         1 K14       0.034200
     73 H31          8.8210     7.2580    -1.3160 hc         1 K14       0.057700
     74 H32          6.3620     5.5370     4.5390 hc         1 K14       0.033700
     75 H32A         7.1360     4.2850     5.5210 hc         1 K14       0.033700
     76 H34          9.8520     7.6880     2.2760 ha         1 K14       0.098000
     77 H35         11.8950     6.6110     3.1410 ha         1 K14       0.098000
     78 H36         11.7200     4.6670     4.6470 ha         1 K14       0.098000
     79 H37          9.5040     3.7990     5.2880 ha         1 K14       0.100000
     80 H33          7.6350     6.8210     2.9170 ha         1 K14       0.100000
@<TRIPOS>BOND
     1     1     2 1   
     2     1    41 1   
     3     1    42 1   
     4     1    43 1   
     5     2     3 1   
     6     3     4 ar  
     7     3     8 ar  
     8     4     5 ar  
     9     4    44 1   
    10     5     6 ar  
    11     5    45 1   
    12     6     7 ar  
    13     6     9 1   
    14     7     8 ar  
    15     7    46 1   
    16     8    47 1   
    17     9    10 2   
    18     9    11 2   
    19     9    12 1   
    20    12    13 1   
    21    12    17 1   
    22    13    14 1   
    23    13    48 1   
    24    13    49 1   
    25    14    15 1   
    26    14    16 1   
    27    14    50 1   
    28    15    51 1   
    29    15    52 1   
    30    15    53 1   
    31    16    19 1   
    32    16    54 1   
    33    16    55 1   
    34    17    18 1   
    35    17    56 1   
    36    17    57 1   
    37    18    20 1   
    38    18    21 1   
    39    18    58 1   
    40    19    59 1   
    41    19    60 1   
    42    19    61 1   
    43    20    62 1   
    44    21    22 1   
    45    21    34 1   
    46    21    63 1   
    47    22    23 1   
    48    22    64 1   
    49    23    24 2   
    50    23    25 1   
    51    25    26 1   
    52    26    27 1   
    53    26    33 1   
    54    26    65 1   
    55    27    28 1   
    56    27    66 1   
    57    27    67 1   
    58    28    29 1   
    59    29    30 1   
    60    29    33 1   
    61    29    68 1   
    62    30    31 1   
    63    31    32 1   
    64    31    69 1   
    65    31    70 1   
    66    32    33 1   
    67    32    71 1   
    68    32    72 1   
    69    33    73 1   
    70    34    40 1   
    71    34    74 1   
    72    34    75 1   
    73    35    36 ar  
    74    35    40 ar  
    75    35    80 1   
    76    36    37 ar  
    77    36    76 1   
    78    37    38 ar  
    79    37    77 1   
    80    38    39 ar  
    81    38    78 1   
    82    39    40 ar  
    83    39    79 1   
@<TRIPOS>SUBSTRUCTURE
     1 K14         1 TEMP              0 ****  ****    0 ROOT
