@<TRIPOS>MOLECULE
K15
   65    67     1     0     0
SMALL
bcc


@<TRIPOS>ATOM
      1 O            0.0000     0.0000     0.0000 o          1 K15      -0.818800
      2 C            1.2080     0.0000     0.0000 c          1 K15       0.958600
      3 CA           1.9610     0.0000     1.3050 c3         1 K15      -0.200500
      4 N            1.0680     0.4380     2.3870 nz         1 K15       0.080400
      5 CB           2.4680    -1.4130     1.6020 c3         1 K15      -0.028400
      6 CG           3.3530    -1.3860     2.8500 c3         1 K15       0.121800
      7 ND           3.7360    -2.7580     3.2090 n3         1 K15      -0.520600
      8 CE           4.2510    -2.8180     4.5830 c3         1 K15       0.138800
      9 C11          3.1260    -2.4850     5.5650 c3         1 K15      -0.032400
     10 C12          3.6640    -2.5490     6.9960 c3         1 K15      -0.028400
     11 C13          2.5390    -2.2150     7.9780 c3         1 K15      -0.028400
     12 C14          3.0760    -2.2790     9.4090 c3         1 K15      -0.028400
     13 C15          1.9520    -1.9450    10.3920 c3         1 K15       0.006900
     14 C5'          4.7130    -3.2990     2.2550 c3         1 K15       0.139800
     15 C4'          4.7870    -4.8190     2.4070 c3         1 K15       0.168100
     16 O4'          3.5320    -5.4240     2.0280 os         1 K15      -0.382600
     17 C1'          3.8480    -6.8010     1.7300 c3         1 K15       0.148800
     18 C2'          5.1910    -6.7420     0.9680 c3         1 K15       0.119100
     19 O2'          6.0250    -7.8430     1.3370 oh         1 K15      -0.541800
     20 C3'          5.8230    -5.4080     1.4240 c3         1 K15       0.128100
     21 O3'          7.0660    -5.6450     2.0880 oh         1 K15      -0.553800
     22 N9           2.8080    -7.3920     0.8860 na         1 K15       0.203000
     23 C8           1.9750    -6.7190     0.0420 cc         1 K15       0.250700
     24 N7           1.1740    -7.5550    -0.5540 nd         1 K15      -0.491100
     25 C5           1.4420    -8.8140    -0.1310 ca         1 K15      -0.244200
     26 C6           0.9180   -10.0860    -0.4200 ca         1 K15       0.592200
     27 N6          -0.1210   -10.2350    -1.3210 nv         1 K15      -0.480500
     28 C4           2.4970    -8.7260     0.7930 ca         1 K15       0.272800
     29 N3           2.9530    -9.8380     1.3610 nb         1 K15      -0.679000
     30 C2           2.4260   -11.0070     1.0660 ca         1 K15       0.690900
     31 N1           1.4440   -11.1410     0.1920 nb         1 K15      -0.747000
     32 OXT          1.8800    -0.0050    -1.1620 o          1 K15      -0.818800
     33 H1           2.8030     0.6780     1.2360 hx         1 K15       0.083700
     34 H2           0.5100     1.2060     2.0690 hn         1 K15       0.211800
     35 H3           0.4710    -0.3200     2.6540 hn         1 K15       0.211800
     36 H5           3.0440    -1.7740     0.7590 hc         1 K15       0.062700
     37 H6           1.6240    -2.0710     1.7720 hc         1 K15       0.062700
     38 H7           2.8060    -0.9380     3.6710 h1         1 K15       0.003700
     39 H8           4.2430    -0.8030     2.6490 h1         1 K15       0.003700
     40 H10          5.0550    -2.1010     4.6980 h1         1 K15       0.019200
     41 H11          4.6240    -3.8150     4.7860 h1         1 K15       0.019200
     42 H12          2.7540    -1.4880     5.3630 hc         1 K15       0.015700
     43 H13          2.3220    -3.2010     5.4490 hc         1 K15       0.015700
     44 H14          4.0360    -3.5460     7.1980 hc         1 K15       0.018200
     45 H15          4.4690    -1.8330     7.1120 hc         1 K15       0.018200
     46 H16          2.1670    -1.2180     7.7760 hc         1 K15       0.012700
     47 H17          1.7340    -2.9310     7.8630 hc         1 K15       0.012700
     48 H18          3.8810    -1.5630     9.5250 hc         1 K15       0.014200
     49 H19          3.4480    -3.2760     9.6110 hc         1 K15       0.014200
     50 H20          1.1780    -2.7000    10.3250 hc         1 K15       0.001367
     51 H21          2.3470    -1.9210    11.4000 hc         1 K15       0.001367
     52 H22          1.5330    -0.9760    10.1460 hc         1 K15       0.001367
     53 H23          5.6870    -2.8680     2.4540 h1         1 K15       0.028200
     54 H24          4.4080    -3.0510     1.2460 h1         1 K15       0.028200
     55 H25          5.0410    -5.0900     3.4250 h1         1 K15       0.046700
     56 H26          3.9630    -7.3660     2.6480 h2         1 K15       0.070700
     57 H27          5.0170    -6.7320    -0.1010 h1         1 K15       0.022700
     58 H28          6.5210    -8.1270     0.5870 ho         1 K15       0.392000
     59 H29          5.9580    -4.7460     0.5770 h1         1 K15       0.018700
     60 H30          7.7770    -5.3770     1.5300 ho         1 K15       0.390000
     61 H31          1.9790    -5.6470    -0.1100 h5         1 K15       0.043800
     62 H32         -0.5090    -9.4320    -1.7750 hn         1 K15       0.276800
     63 H33         -0.4850   -11.1470    -1.5180 hn         1 K15       0.276800
     64 H34          2.8260   -11.8940     1.5420 h5         1 K15      -0.005900
     65 HN3          1.6140     0.7320     3.1720 hn         1 K15       0.211800
@<TRIPOS>BOND
     1     1     2 1   
     2     2     3 1   
     3     2    32 1   
     4     3     4 1   
     5     3     5 1   
     6     3    33 1   
     7     4    34 1   
     8     4    35 1   
     9     4    65 1   
    10     5     6 1   
    11     5    36 1   
    12     5    37 1   
    13     6     7 1   
    14     6    38 1   
    15     6    39 1   
    16     7     8 1   
    17     7    14 1   
    18     8     9 1   
    19     8    40 1   
    20     8    41 1   
    21     9    10 1   
    22     9    42 1   
    23     9    43 1   
    24    10    11 1   
    25    10    44 1   
    26    10    45 1   
    27    11    12 1   
    28    11    46 1   
    29    11    47 1   
    30    12    13 1   
    31    12    48 1   
    32    12    49 1   
    33    13    50 1   
    34    13    51 1   
    35    13    52 1   
    36    14    15 1   
    37    14    53 1   
    38    14    54 1   
    39    15    16 1   
    40    15    20 1   
    41    15    55 1   
    42    16    17 1   
    43    17    18 1   
    44    17    22 1   
    45    17    56 1   
    46    18    19 1   
    47    18    20 1   
    48    18    57 1   
    49    19    58 1   
    50    20    21 1   
    51    20    59 1   
    52    21    60 1   
    53    22    23 1   
    54    22    28 1   
    55    23    24 2   
    56    23    61 1   
    57    24    25 1   
    58    25    26 ar  
    59    25    28 ar  
    60    26    27 1   
    61    26    31 ar  
    62    27    62 1   
    63    27    63 1   
    64    28    29 ar  
    65    29    30 ar  
    66    30    31 ar  
    67    30    64 1   
@<TRIPOS>SUBSTRUCTURE
     1 K15         1 TEMP              0 ****  ****    0 ROOT
