@<TRIPOS>MOLECULE
molecule
   15    16     1     0     0
SMALL
bcc


@<TRIPOS>ATOM
      1 Br3          0.0000     0.0000     0.0000 br         1 K17      -0.054100
      2 C3           1.8990     0.0000     0.0000 ca         1 K17       0.001100
      3 C2           2.6960     0.0000     1.1500 ca         1 K17       0.050100
      4 Br2          1.8240    -0.0040     2.8650 br         1 K17      -0.046100
      5 C7           2.5650     0.0050    -1.2260 ca         1 K17      -0.055200
      6 N8           2.1140     0.0070    -2.5210 na         1 K17      -0.258300
      7 C9           3.2060     0.0110    -3.3430 cc         1 K17       0.427700
      8 N5           4.3310     0.0120    -2.6660 nd         1 K17      -0.550100
      9 C6           3.9520     0.0080    -1.3430 ca         1 K17       0.084400
     10 C4           4.7370     0.0070    -0.1780 ca         1 K17       0.073100
     11 Br4          6.6270     0.0180    -0.4030 br         1 K17      -0.027100
     12 C1           4.0910     0.0030     1.0640 ca         1 K17       0.002100
     13 Br1          5.1660     0.0040     2.6600 br         1 K17      -0.047100
     14 HN8          1.1590    -0.0660    -2.8110 hn         1 K17       0.317700
     15 H9           3.1550     0.4980    -4.3090 h5         1 K17       0.080800
@<TRIPOS>BOND
     1     1     2 1
     2     2     3 ar
     3     2     5 ar
     4     3    12 ar
     5     3     4 1
     6     5     9 ar
     7     5     6 1
     8     6     7 1
     9     6    14 1
    10     7     8 2
    11     7    15 1
    12     8     9 1
    13     9    10 ar
    14    10    11 1
    15    10    12 ar
    16    12    13 1
@<TRIPOS>SUBSTRUCTURE
     1 K17         1 TEMP              0 ****  ****    0 ROOT
