@<TRIPOS>MOLECULE
K17
   15    16     1     0     0
SMALL
bcc


@<TRIPOS>ATOM
      1 BR3         0.0320   -0.0190    0.0900 br        1 K17     -0.046100
      2 C3          1.8940    0.0010    0.0100 ca        1 K17     -0.009900
      3 C2          2.6920   -0.0250    1.1550 ca        1 K17      0.026100
      4 BR2         1.8670   -0.0800    2.8310 br        1 K17     -0.028100
      5 C7          2.5430    0.0420   -1.2290 ca        1 K17     -0.048200
      6 N8          2.0710    0.0750   -2.5420 na        1 K17     -0.274300
      7 C9          3.2100    0.1090   -3.3690 cc        1 K17      0.436700
      8 N5          4.3660    0.1000   -2.6860 nd        1 K17     -0.543100
      9 C6          3.9930    0.0580   -1.3270 ca        1 K17      0.091400
     10 C4          4.7650    0.0320   -0.1580 ca        1 K17      0.059100
     11 BR4         6.6250    0.0520   -0.2680 br        1 K17     -0.017100
     12 C1          4.1030   -0.0090    1.0710 ca        1 K17     -0.016900
     13 BR1         5.1100   -0.0450    2.6470 br        1 K17     -0.031100
     14 HN8         1.1250    0.0740   -2.8210 hn        1 K17      0.320700
     15 H9          3.1250    0.1390   -4.4640 h5        1 K17      0.079800
@<TRIPOS>BOND
     1    1    2 1   
     2    2    3 ar  
     3    2    5 ar  
     4    3    4 1   
     5    3   12 ar  
     6    5    6 1   
     7    5    9 ar  
     8    6    7 1   
     9    6   14 1   
    10    7    8 2   
    11    7   15 1   
    12    8    9 1   
    13    9   10 ar  
    14   10   11 1   
    15   10   12 ar  
    16   12   13 1   
@<TRIPOS>SUBSTRUCTURE
     1 K17         1 TEMP              0 ****  ****    0 ROOT
