@<TRIPOS>MOLECULE
K19
   78    82     1     0     0
SMALL
bcc


@<TRIPOS>ATOM
      1 C1           0.0000     0.0000     0.0000 cc         1 K19       0.439100
      2 N1           1.2800     0.0000     0.0000 nd         1 K19      -0.458100
      3 S1          -0.6270    -0.0020     1.5870 ss         1 K19      -0.182100
      4 C2           1.9080     0.0000     1.1920 ca         1 K19       0.112400
      5 C3           1.0020    -0.0010     2.2570 ca         1 K19      -0.070100
      6 C4           1.4630    -0.0000     3.5720 ca         1 K19       0.064000
      7 C5           2.8170     0.0010     3.8250 ca         1 K19      -0.159500
      8 C6           3.7210     0.0020     2.7720 ca         1 K19      -0.009000
      9 C7           3.2870    -0.0000     1.4810 ca         1 K19      -0.070000
     10 S8           3.4010     0.0020     5.4870 sy         1 K19       1.050200
     11 O9           4.7130     0.5470     5.4510 o          1 K19      -0.582800
     12 O10          2.3550     0.5450     6.2800 o          1 K19      -0.582800
     13 N11          3.5650    -1.5800     5.9490 n3         1 K19      -0.516500
     14 C12          4.8350    -2.2790     5.7330 c3         1 K19       0.232800
     15 C13          5.7000    -2.1660     6.9890 c3         1 K19      -0.079700
     16 C14          5.0260    -2.9120     8.1420 c3         1 K19      -0.012100
     17 C15          7.0750    -2.7790     6.7190 c3         1 K19      -0.020400
     18 C16          2.4410    -2.2810     6.5750 c3         1 K19       0.191800
     19 C17          1.6520    -3.0360     5.5040 c3         1 K19       0.144100
     20 C18          7.9810    -2.5550     7.9320 c3         1 K19       0.002900
     21 O18          2.4720    -4.0630     4.9430 oh         1 K19      -0.579800
     22 C19          0.4080    -3.6660     6.1360 c3         1 K19       0.008700
     23 N20         -0.4100    -4.2870     5.0910 ns         1 K19      -0.168900
     24 C21         -1.7340    -4.4510     5.2800 c          1 K19       0.675100
     25 O22         -2.2490    -4.0840     6.3170 o          1 K19      -0.642000
     26 O23         -2.4860    -5.0220     4.3200 os         1 K19      -0.412900
     27 C24         -3.9040    -5.1670     4.5920 c3         1 K19       0.170100
     28 C25         -4.6770    -3.9390     4.0790 c3         1 K19       0.190400
     29 O26         -5.5470    -4.3870     3.0300 os         1 K19      -0.416600
     30 C27         -5.8300    -5.7810     3.2530 c3         1 K19       0.398900
     31 O28         -6.0240    -6.4210     1.9850 os         1 K19      -0.397600
     32 C29         -4.7730    -6.8790     1.4600 c3         1 K19       0.216400
     33 C30         -3.6770    -6.5240     2.4870 c3         1 K19      -0.051400
     34 C31         -4.4850    -6.3560     3.7980 c3         1 K19      -0.124700
     35 C32          0.8330    -4.7290     7.1500 c3         1 K19       0.011900
     36 C33         -1.0620    -6.3520     7.3480 ca         1 K19      -0.091500
     37 C34         -2.1790    -6.8400     8.0000 ca         1 K19      -0.092500
     38 C35         -2.6190    -6.2380     9.1630 ca         1 K19      -0.098000
     39 C36         -1.9420    -5.1460     9.6760 ca         1 K19      -0.092500
     40 C37         -0.8250    -4.6580     9.0240 ca         1 K19      -0.091500
     41 C38         -0.3840    -5.2610     7.8600 ca         1 K19      -0.080300
     42 H1          -0.6090     0.0010    -0.8960 h5         1 K19       0.033800
     43 H4           0.7580    -0.0010     4.3940 ha         1 K19       0.131000
     44 H6           4.7840     0.0020     2.9800 ha         1 K19       0.129000
     45 H7           4.0070     0.0000     0.6710 ha         1 K19       0.121000
     46 H12          4.6410    -3.3240     5.5220 h1         1 K19       0.028700
     47 H12A         5.3550    -1.8320     4.8950 h1         1 K19       0.028700
     48 H13          5.8170    -1.1220     7.2550 hc         1 K19       0.051700
     49 H14          4.6550    -3.8660     7.7870 hc         1 K19       0.009033
     50 H14A         4.2000    -2.3220     8.5210 hc         1 K19       0.009033
     51 H14B         5.7450    -3.0780     8.9350 hc         1 K19       0.009033
     52 H15          6.9680    -3.8430     6.5410 hc         1 K19       0.013200
     53 H15A         7.5150    -2.3100     5.8480 hc         1 K19       0.013200
     54 H16          2.8180    -2.9840     7.3090 h1         1 K19       0.056700
     55 H16A         1.7930    -1.5620     7.0620 h1         1 K19       0.056700
     56 H17          1.3510    -2.3480     4.7240 h1         1 K19       0.008700
     57 H18          7.8670    -3.3790     8.6250 hc         1 K19       0.003367
     58 H18A         7.7050    -1.6290     8.4220 hc         1 K19       0.003367
     59 H18B         9.0130    -2.4970     7.6060 hc         1 K19       0.003367
     60 HO18         2.3230    -4.1110     4.0130 ho         1 K19       0.389000
     61 H19         -0.1690    -2.8980     6.6370 h1         1 K19       0.070700
     62 HN20         0.0090    -4.5600     4.2240 hn         1 K19       0.169500
     63 H24         -4.0790    -5.3040     5.6520 h1         1 K19       0.054700
     64 H25         -5.2620    -3.5110     4.8840 h1         1 K19       0.021200
     65 H25A        -3.9820    -3.2050     3.6900 h1         1 K19       0.021200
     66 H27         -6.6570    -5.9390     3.9350 h2         1 K19       0.040700
     67 H29         -4.5680    -6.3840     0.5190 h1         1 K19       0.006200
     68 H29A        -4.8070    -7.9520     1.3170 h1         1 K19       0.006200
     69 H30         -2.9630    -7.3330     2.5790 hc         1 K19       0.034200
     70 H30A        -3.1870    -5.5970     2.2170 hc         1 K19       0.034200
     71 H31         -4.5980    -7.2670     4.3740 hc         1 K19       0.057700
     72 H32          1.3340    -5.5390     6.6350 hc         1 K19       0.033200
     73 H32A         1.5090    -4.2880     7.8730 hc         1 K19       0.033200
     74 H34         -2.7090    -7.6950     7.5990 ha         1 K19       0.098000
     75 H35         -3.4950    -6.6210     9.6740 ha         1 K19       0.099000
     76 H36         -2.2870    -4.6730    10.5870 ha         1 K19       0.098000
     77 H37         -0.2950    -3.8030     9.4250 ha         1 K19       0.099500
     78 H33         -0.7170    -6.8240     6.4370 ha         1 K19       0.099500
@<TRIPOS>BOND
     1     1     2 2   
     2     1     3 1   
     3     1    42 1   
     4     2     4 1   
     5     3     5 1   
     6     4     5 ar  
     7     4     9 ar  
     8     5     6 ar  
     9     6     7 ar  
    10     6    43 1   
    11     7     8 ar  
    12     7    10 1   
    13     8     9 ar  
    14     8    44 1   
    15     9    45 1   
    16    10    11 2   
    17    10    12 2   
    18    10    13 1   
    19    13    14 1   
    20    13    18 1   
    21    14    15 1   
    22    14    46 1   
    23    14    47 1   
    24    15    16 1   
    25    15    17 1   
    26    15    48 1   
    27    16    49 1   
    28    16    50 1   
    29    16    51 1   
    30    17    20 1   
    31    17    52 1   
    32    17    53 1   
    33    18    19 1   
    34    18    54 1   
    35    18    55 1   
    36    19    21 1   
    37    19    22 1   
    38    19    56 1   
    39    20    57 1   
    40    20    58 1   
    41    20    59 1   
    42    21    60 1   
    43    22    23 1   
    44    22    35 1   
    45    22    61 1   
    46    23    24 1   
    47    23    62 1   
    48    24    25 2   
    49    24    26 1   
    50    26    27 1   
    51    27    28 1   
    52    27    34 1   
    53    27    63 1   
    54    28    29 1   
    55    28    64 1   
    56    28    65 1   
    57    29    30 1   
    58    30    31 1   
    59    30    34 1   
    60    30    66 1   
    61    31    32 1   
    62    32    33 1   
    63    32    67 1   
    64    32    68 1   
    65    33    34 1   
    66    33    69 1   
    67    33    70 1   
    68    34    71 1   
    69    35    41 1   
    70    35    72 1   
    71    35    73 1   
    72    36    37 ar  
    73    36    41 ar  
    74    36    78 1   
    75    37    38 ar  
    76    37    74 1   
    77    38    39 ar  
    78    38    75 1   
    79    39    40 ar  
    80    39    76 1   
    81    40    41 ar  
    82    40    77 1   
@<TRIPOS>SUBSTRUCTURE
     1 K19         1 TEMP              0 ****  ****    0 ROOT
