@<TRIPOS>MOLECULE
K1D
   22    24     1     0     0
SMALL
bcc


@<TRIPOS>ATOM
      1 N1           0.0000     0.0000     0.0000 nb         1 K1D      -0.693000
      2 N3           1.8530    -0.0000     3.6000 na         1 K1D       0.175000
      3 C4           1.3210     0.0000     0.0000 ca         1 K1D       0.656900
      4 C5           1.4250    -0.0000     2.2960 ca         1 K1D       0.217800
      5 C6           0.7450    -0.0010     4.3930 cc         1 K1D       0.230700
      6 C7           0.0210    -0.0000     2.3490 ca         1 K1D      -0.179200
      7 N           -2.0730     0.0010     1.1260 nn         1 K1D      -0.480300
      8 C           -3.6180     1.0370     0.2340 cy         1 K1D      -0.061400
      9 C1          -2.5920    -0.0000    -0.2590 cy         1 K1D       0.132300
     10 C2          -2.6040     1.3640     1.3460 cy         1 K1D       0.132300
     11 C3          -0.6890     0.0000     1.1360 ca         1 K1D       0.587200
     12 N2           2.0270     0.0000     1.1110 nb         1 K1D      -0.633000
     13 N4          -0.3300    -0.0010     3.6580 nd         1 K1D      -0.472100
     14 H1           2.8040    -0.0010     3.9110 hn         1 K1D       0.134700
     15 H2           1.8430    -0.0000    -0.9490 h5         1 K1D       0.000100
     16 H3           0.7560    -0.0020     5.4770 h5         1 K1D       0.032800
     17 H4          -3.7650     1.8540    -0.4610 hc         1 K1D       0.031700
     18 H5          -4.5300     0.5880     0.6080 hc         1 K1D       0.031700
     19 H6          -3.0440    -0.9430    -0.5440 h1         1 K1D       0.039450
     20 H7          -1.8900     0.4050    -0.9780 h1         1 K1D       0.039450
     21 H8          -1.9050     2.1430     1.0700 h1         1 K1D       0.039450
     22 H9          -3.0650     1.4890     2.3190 h1         1 K1D       0.039450
@<TRIPOS>BOND
     1     1     3 ar  
     2     1    11 ar  
     3     2     4 1   
     4     2     5 1   
     5     2    14 1   
     6     3    12 ar  
     7     3    15 1   
     8     4     6 ar  
     9     4    12 ar  
    10     5    13 2   
    11     5    16 1   
    12     6    11 ar  
    13     6    13 1   
    14     7     9 1   
    15     7    10 1   
    16     7    11 1   
    17     8     9 1   
    18     8    10 1   
    19     8    17 1   
    20     8    18 1   
    21     9    19 1   
    22     9    20 1   
    23    10    21 1   
    24    10    22 1   
@<TRIPOS>SUBSTRUCTURE
     1 K1D         1 TEMP              0 ****  ****    0 ROOT
