@<TRIPOS>MOLECULE
K1G
   30    31     1     0     0
SMALL
bcc


@<TRIPOS>ATOM
      1 N1           0.0000     0.0000     0.0000 nb         1 K1G      -0.727000
      2 N3           2.1010    -0.0000     3.4580 na         1 K1G       0.381200
      3 C4           1.3280     0.0000     0.0000 ca         1 K1G       0.613200
      4 C5          -0.6850     0.0010     1.1290 ca         1 K1G       0.693900
      5 C6           1.2230    -0.0000     2.4150 ca         1 K1G       0.324800
      6 C7           1.7450    -0.0010     4.8790 c3         1 K1G       0.033600
      7 C8           3.3520    -0.0000     1.6350 cc         1 K1G       0.469800
      8 N            2.0360     0.0000    -1.1860 nh         1 K1G      -0.455300
      9 C            0.4250     1.3570    -2.4370 c3         1 K1G      -0.015600
     10 C1           1.1270     0.0020    -2.3410 c3         1 K1G       0.113500
     11 C2           1.9290    -0.2490    -3.6200 c3         1 K1G      -0.015600
     12 C3           2.9640     1.1380    -1.2460 c3         1 K1G       0.155100
     13 C9           1.9970     0.0000     1.2390 ca         1 K1G      -0.530500
     14 N2          -0.1050     0.0010     2.3110 nb         1 K1G      -0.672000
     15 N4           3.4010    -0.0010     2.9370 nd         1 K1G      -0.636100
     16 H1          -1.7670     0.0010     1.0820 h5         1 K1G      -0.002900
     17 H2           1.1620     0.8830     5.1060 h1         1 K1G       0.023033
     18 H3           2.6480    -0.0010     5.4780 h1         1 K1G       0.023033
     19 H4           1.1620    -0.8860     5.1050 h1         1 K1G       0.023033
     20 H5           4.2060    -0.0010     0.9690 h4         1 K1G       0.019800
     21 H6           0.8420     1.9230    -3.2610 hc         1 K1G       0.011700
     22 H7           0.5690     1.9050    -1.5130 hc         1 K1G       0.011700
     23 H8          -0.6350     1.2040    -2.6030 hc         1 K1G       0.011700
     24 H9           0.3880    -0.7810    -2.2190 h1         1 K1G       0.059700
     25 H10          1.2550    -0.5340    -4.4190 hc         1 K1G       0.011700
     26 H11          2.6430    -1.0460    -3.4490 hc         1 K1G       0.011700
     27 H12          2.4570     0.6550    -3.8980 hc         1 K1G       0.011700
     28 H13          2.8760     1.6250    -2.2100 h1         1 K1G       0.018033
     29 H14          2.7210     1.8440    -0.4610 h1         1 K1G       0.018033
     30 H15          3.9790     0.7830    -1.1120 h1         1 K1G       0.018033
@<TRIPOS>BOND
     1     1     3 ar  
     2     1     4 ar  
     3     2     5 1   
     4     2     6 1   
     5     2    15 1   
     6     3     8 1   
     7     3    13 ar  
     8     4    14 ar  
     9     4    16 1   
    10     5    13 ar  
    11     5    14 ar  
    12     6    17 1   
    13     6    18 1   
    14     6    19 1   
    15     7    13 1   
    16     7    15 2   
    17     7    20 1   
    18     8    10 1   
    19     8    12 1   
    20     9    10 1   
    21     9    21 1   
    22     9    22 1   
    23     9    23 1   
    24    10    11 1   
    25    10    24 1   
    26    11    25 1   
    27    11    26 1   
    28    11    27 1   
    29    12    28 1   
    30    12    29 1   
    31    12    30 1   
@<TRIPOS>SUBSTRUCTURE
     1 K1G         1 TEMP              0 ****  ****    0 ROOT
