@<TRIPOS>MOLECULE
molecule
   29    30     1     0     0
SMALL
bcc


@<TRIPOS>ATOM
      1 N1           0.0000     0.0000     0.0000 nc         1 K1J      -0.772000
      2 C4           1.9230    -1.1790    -1.9430 c3         1 K1J       0.140500
      3 C5           2.1210    -2.4500    -1.1140 c3         1 K1J      -0.095100
      4 C6           1.3170     0.0000     0.0000 cd         1 K1J       0.642300
      5 C7          -0.5910     0.0000     1.1720 cc         1 K1J       0.606300
      6 C8          -2.0940     0.0000     1.2850 c3         1 K1J      -0.105400
      7 N            2.1590    -0.0000    -1.0980 nh         1 K1J      -0.682300
      8 O            2.7740     0.0520    -3.8370 os         1 K1J      -0.417600
      9 C1           2.9130    -1.1710    -3.1110 c3         1 K1J       0.149100
     10 C2           2.9980     1.2210    -3.0450 c3         1 K1J       0.136400
     11 C3           2.0090     1.2370    -1.8770 c3         1 K1J       0.128800
     12 N2           0.1620     0.0010     2.2330 nd         1 K1J      -0.503100
     13 S            1.7630     0.0000     1.6640 ss         1 K1J       0.049700
     14 H1           0.9110    -1.1480    -2.3290 h1         1 K1J       0.062700
     15 H2           2.4240    -3.2620    -1.7640 hc         1 K1J       0.046700
     16 H3           2.8870    -2.2790    -0.3680 hc         1 K1J       0.046700
     17 H4           1.1900    -2.7090    -0.6230 hc         1 K1J       0.046700
     18 H5          -2.3800     0.2330     2.3030 hc         1 K1J       0.060700
     19 H6          -2.5070     0.7450     0.6140 hc         1 K1J       0.060700
     20 H7          -2.4760    -0.9780     1.0170 hc         1 K1J       0.060700
     21 H11          2.7010    -2.0060    -3.7680 h1         1 K1J       0.084700
     22 H12          4.0110     1.2070    -2.6590 h1         1 K1J       0.058200
     23 H13          2.8500     2.1040    -3.6550 h1         1 K1J       0.058200
     24 H14          2.2150     2.0900    -1.2420 h1         1 K1J       0.059200
     25 H15          0.9990     1.3000    -2.2620 h1         1 K1J       0.059200
     26 C            4.3400    -1.2860    -2.5700 c3         1 K1J      -0.127100
     27 H8           5.0320    -0.8490    -3.2800 hc         1 K1J       0.048033
     28 H9           4.4120    -0.7610    -1.6250 hc         1 K1J       0.048033
     29 H10          4.5870    -2.3310    -2.4220 hc         1 K1J       0.048033
@<TRIPOS>BOND
     1     8    10 1
     2     8     9 1
     3    10    11 1
     4    26     9 1
     5     9     2 1
     6    11     7 1
     7     2     7 1
     8     2     3 1
     9     7     4 1
    10     1     4 2
    11     1     5 1
    12     4    13 1
    13     5     6 1
    14     5    12 2
    15    13    12 1
    16     2    14 1
    17     3    15 1
    18     3    16 1
    19     3    17 1
    20     6    18 1
    21     6    19 1
    22     6    20 1
    23    26    27 1
    24    26    28 1
    25    26    29 1
    26     9    21 1
    27    10    22 1
    28    10    23 1
    29    11    24 1
    30    11    25 1
@<TRIPOS>SUBSTRUCTURE
     1 K1J         1 TEMP              0 ****  ****    0 ROOT
