@<TRIPOS>MOLECULE
molecule
   27    28     1     0     0
SMALL
bcc


@<TRIPOS>ATOM
      1 N1           0.0000     0.0000     0.0000 nc         1 K1P      -0.769000
      2 N3          -4.7830     0.1130     1.3990 n7         1 K1P      -0.800200
      3 C4          -3.4160    -1.0410     3.0620 c3         1 K1P      -0.076400
      4 C5          -4.6860    -0.3680     2.7970 c3         1 K1P       0.158800
      5 C6          -4.0650     1.3540     1.2530 c3         1 K1P       0.152800
      6 C7          -2.6190     1.1470     0.7700 c3         1 K1P       0.190800
      7 N            1.9220     0.0000     1.1510 nd         1 K1P      -0.505100
      8 C            2.0910    -0.0000    -1.2910 c3         1 K1P      -0.105400
      9 C1           1.3130     0.0000     0.0000 cc         1 K1P       0.624300
     10 C2          -0.5930    -0.0010     1.1750 cd         1 K1P       0.668300
     11 C3          -2.2110    -0.1020     2.8470 c3         1 K1P       0.163800
     12 N2          -1.9520    -0.0010     1.4310 nh         1 K1P      -0.651300
     13 S            0.6910    -0.0000     2.3230 ss         1 K1P      -0.059300
     14 H3          -3.4110    -1.3890     4.0880 hc         1 K1P       0.063700
     15 H4          -3.3230    -1.8900     2.3960 hc         1 K1P       0.063700
     16 H5          -4.7800     0.4800     3.4650 h1         1 K1P       0.031200
     17 H6          -5.4960    -1.0620     2.9850 h1         1 K1P       0.031200
     18 H7          -4.0430     1.8590     2.2110 h1         1 K1P       0.034700
     19 H8          -4.5860     1.9760     0.5350 h1         1 K1P       0.034700
     20 H9          -2.6310     0.9740    -0.2990 h1         1 K1P       0.057200
     21 H10         -2.0500     2.0460     0.9780 h1         1 K1P       0.057200
     22 H11          1.6800    -0.7470    -1.9600 hc         1 K1P       0.060367
     23 H12          2.0230     0.9760    -1.7540 hc         1 K1P       0.060367
     24 H13          3.1300    -0.2310    -1.0870 hc         1 K1P       0.060367
     25 H14         -2.4400     0.8790     3.2450 h1         1 K1P       0.048700
     26 H15         -1.3410    -0.5090     3.3470 h1         1 K1P       0.048700
     27 H1          -5.7450     0.2540     1.1610 hn         1 K1P       0.358800
@<TRIPOS>BOND
     1     5     2 1
     2     5     6 1
     3     2     4 1
     4     4     3 1
     5     6    12 1
     6     3    11 1
     7    11    12 1
     8    12    10 1
     9     1    10 2
    10     1     9 1
    11    10    13 1
    12     9     8 1
    13     9     7 2
    14    13     7 1
    15     2    27 1
    16     3    14 1
    17     3    15 1
    18     4    16 1
    19     4    17 1
    20     5    18 1
    21     5    19 1
    22     6    20 1
    23     6    21 1
    24     8    22 1
    25     8    23 1
    26     8    24 1
    27    11    25 1
    28    11    26 1
@<TRIPOS>SUBSTRUCTURE
     1 K1P         1 TEMP              0 ****  ****    0 ROOT
