@<TRIPOS>MOLECULE
K1S
   30    31     1     0     0
SMALL
bcc


@<TRIPOS>ATOM
      1 N1           0.0000     0.0000     0.0000 nc         1 K1S      -0.600000
      2 N3          -1.0380     0.0000     3.3330 nc         1 K1S      -0.801100
      3 C4           1.3200    -0.0000     2.3910 cc         1 K1S       0.033300
      4 C5           2.0210     0.0000     1.2000 cd         1 K1S      -0.404300
      5 C6           1.3160     0.0000     0.0000 cd         1 K1S       0.467600
      6 C7           2.0640    -0.0000    -1.3080 c3         1 K1S      -0.044400
      7 C8          -0.6940     0.0000     1.1440 cc         1 K1S       0.273500
      8 N            1.9840    -0.0000     3.5970 nh         1 K1S      -0.325000
      9 C            3.9580     1.4430     3.6380 c3         1 K1S      -0.015100
     10 C1           3.4480     0.0000     3.6270 c3         1 K1S       0.138300
     11 C2           1.2260    -0.0010     4.8500 c3         1 K1S       0.138300
     12 C3           0.9620    -1.4440     5.2860 c3         1 K1S      -0.015100
     13 C9          -2.1940    -0.0010     2.7150 cd         1 K1S       0.642200
     14 N2          -1.9970    -0.0010     1.4020 nd         1 K1S      -0.407300
     15 N4          -0.0440     0.0000     2.3470 na         1 K1S       0.440200
     16 H1           3.1050    -0.0000     1.2010 ha         1 K1S       0.150000
     17 H2           2.7410    -0.8450    -1.3370 hc         1 K1S       0.018700
     18 H3           1.3590    -0.0740    -2.1270 hc         1 K1S       0.018700
     19 H4           2.6300     0.9190    -1.4010 hc         1 K1S       0.018700
     20 H5           3.1810     2.1030     3.2750 hc         1 K1S       0.011700
     21 H6           4.2270     1.7230     4.6490 hc         1 K1S       0.011700
     22 H7           4.8290     1.5230     2.9980 hc         1 K1S       0.011700
     23 H8           3.7920    -0.5110     4.5180 h1         1 K1S       0.043700
     24 H9           3.8280    -0.5100     2.7500 h1         1 K1S       0.043700
     25 H10          0.2820     0.5100     4.7020 h1         1 K1S       0.043700
     26 H11          1.7950     0.5100     5.6180 h1         1 K1S       0.043700
     27 H12          1.7420    -1.7640     5.9660 hc         1 K1S       0.011700
     28 H13          0.0020    -1.5010     5.7850 hc         1 K1S       0.011700
     29 H14          0.9550    -2.0880     4.4150 hc         1 K1S       0.011700
     30 H15         -3.1620    -0.0010     3.2010 h5         1 K1S       0.028800
@<TRIPOS>BOND
     1     1     5 2   
     2     1     7 1   
     3     2    13 2   
     4     2    15 1   
     5     3     4 2   
     6     3     8 1   
     7     3    15 1   
     8     4     5 1   
     9     4    16 1   
    10     5     6 1   
    11     6    17 1   
    12     6    18 1   
    13     6    19 1   
    14     7    14 2   
    15     7    15 1   
    16     8    10 1   
    17     8    11 1   
    18     9    10 1   
    19     9    20 1   
    20     9    21 1   
    21     9    22 1   
    22    10    23 1   
    23    10    24 1   
    24    11    12 1   
    25    11    25 1   
    26    11    26 1   
    27    12    27 1   
    28    12    28 1   
    29    12    29 1   
    30    13    14 1   
    31    13    30 1   
@<TRIPOS>SUBSTRUCTURE
     1 K1S         1 TEMP              0 ****  ****    0 ROOT
