@<TRIPOS>MOLECULE
molecule
   30    31     1     0     0
SMALL
bcc


@<TRIPOS>ATOM
      1 N1           0.0000     0.0000     0.0000 nc         1 K1S      -0.725000
      2 N3          -1.0380     0.0000     3.3330 nc         1 K1S      -0.646100
      3 C4           1.3200    -0.0000     2.3910 cc         1 K1S       0.336300
      4 C5           2.0210     0.0000     1.2000 cd         1 K1S      -0.434300
      5 C6           1.3160     0.0000     0.0000 cd         1 K1S       0.532600
      6 C7           2.0640    -0.0000    -1.3080 c3         1 K1S      -0.144400
      7 C8          -0.6940     0.0000     1.1440 cc         1 K1S       0.495500
      8 N            1.9840    -0.0000     3.5970 nh         1 K1S      -0.700000
      9 C            3.9580     1.4430     3.6380 c3         1 K1S      -0.114600
     10 C1           3.4480     0.0000     3.6270 c3         1 K1S       0.219300
     11 C2           1.2260    -0.0010     4.8500 c3         1 K1S       0.219300
     12 C3           0.9620    -1.4440     5.2860 c3         1 K1S      -0.114600
     13 C9          -2.1940    -0.0010     2.7150 cd         1 K1S       0.594200
     14 N2          -1.9970    -0.0010     1.4020 nd         1 K1S      -0.455300
     15 N4          -0.0440     0.0000     2.3470 na         1 K1S      -0.025800
     16 H1           3.1050    -0.0000     1.2010 ha         1 K1S       0.160000
     17 H2           2.7410    -0.8450    -1.3370 hc         1 K1S       0.060033
     18 H3           1.3590    -0.0740    -2.1270 hc         1 K1S       0.060033
     19 H4           2.6300     0.9190    -1.4010 hc         1 K1S       0.060033
     20 H5           3.1810     2.1030     3.2750 hc         1 K1S       0.044533
     21 H6           4.2270     1.7230     4.6490 hc         1 K1S       0.044533
     22 H7           4.8290     1.5230     2.9980 hc         1 K1S       0.044533
     23 H8           3.7920    -0.5110     4.5180 h1         1 K1S       0.066700
     24 H9           3.8280    -0.5100     2.7500 h1         1 K1S       0.066700
     25 H10          0.2820     0.5100     4.7020 h1         1 K1S       0.066700
     26 H11          1.7950     0.5100     5.6180 h1         1 K1S       0.066700
     27 H12          1.7420    -1.7640     5.9660 hc         1 K1S       0.044533
     28 H13          0.0020    -1.5010     5.7850 hc         1 K1S       0.044533
     29 H14          0.9550    -2.0880     4.4150 hc         1 K1S       0.044533
     30 H15         -3.1620    -0.0010     3.2010 h5         1 K1S       0.088800
@<TRIPOS>BOND
     1    10     9 1
     2    10     8 1
     3    12    11 1
     4    11     8 1
     5     8     3 1
     6     3     4 2
     7     3    15 1
     8     4     5 1
     9     2    15 1
    10     2    13 2
    11    15     7 1
    12     5     6 1
    13     5     1 2
    14    13    14 1
    15     7     1 1
    16     7    14 2
    17     4    16 1
    18     6    17 1
    19     6    18 1
    20     6    19 1
    21     9    20 1
    22     9    21 1
    23     9    22 1
    24    10    23 1
    25    10    24 1
    26    11    25 1
    27    11    26 1
    28    12    27 1
    29    12    28 1
    30    12    29 1
    31    13    30 1
@<TRIPOS>SUBSTRUCTURE
     1 K1S         1 TEMP              0 ****  ****    0 ROOT
