@<TRIPOS>MOLECULE
molecule
   54    55     1     0     0
SMALL
bcc


@<TRIPOS>ATOM
      1 C1           0.0000     0.0000     0.0000 c3         1 K1T      -0.089600
      2 C2           1.5300     0.0000     0.0000 c3         1 K1T      -0.078700
      3 C3           2.0400     0.0000     1.4420 c3         1 K1T      -0.089600
      4 C4           2.0400    -1.2490    -0.7220 c3         1 K1T      -0.073400
      5 C5           1.6540    -1.1770    -2.2000 c3         1 K1T      -0.096700
      6 C7           2.4050    -0.0220    -2.8670 c3         1 K1T      -0.015100
      7 C8           1.9790     0.0880    -4.3090 ca         1 K1T      -0.083300
      8 C9           0.8200     0.7940    -4.6450 ca         1 K1T      -0.055600
      9 C10          0.4310     0.8910    -5.9860 ca         1 K1T       0.072100
     10 C11          1.2030     0.2830    -6.9730 ca         1 K1T       0.025100
     11 C12          2.3470    -0.4140    -6.6240 ca         1 K1T      -0.142000
     12 C13          2.7350    -0.5030    -5.2970 ca         1 K1T      -0.147000
     13 O14          0.6220     0.5180    -8.1860 os         1 K1T      -0.346900
     14 C15         -0.7270     0.9270    -7.8930 c3         1 K1T       0.326200
     15 O16         -0.6300     1.5060    -6.5770 os         1 K1T      -0.298900
     16 C17          0.0110     1.4330    -3.5910 c          1 K1T       0.886200
     17 O18         -1.0620     0.7950    -3.0850 o          1 K1T      -0.826800
     18 O19          0.3120     2.5360    -3.1790 o          1 K1T      -0.826800
     19 C20          2.0260    -2.4910    -2.8900 c3         1 K1T       0.105000
     20 N21          1.2200    -3.5790    -2.3310 ns         1 K1T      -0.547900
     21 C22          1.3760    -4.8380    -2.7880 c          1 K1T       0.652100
     22 O23          2.1840    -5.0690    -3.6620 o          1 K1T      -0.627100
     23 C24          0.5460    -5.9570    -2.2150 c3         1 K1T      -0.159400
     24 C25          0.9180    -7.2720    -2.9030 c3         1 K1T      -0.093400
     25 C26          0.0750    -8.4080    -2.3190 c3         1 K1T       0.084800
     26 N27          0.4320    -9.6710    -2.9810 nz         1 K1T      -0.809600
     27 H1          -0.3610    -0.3930    -0.9430 hc         1 K1T       0.034867
     28 H1A         -0.3610    -0.6200     0.8120 hc         1 K1T       0.034867
     29 H1B         -0.3610     1.0130     0.1310 hc         1 K1T       0.034867
     30 H2           1.8910     0.8850    -0.5100 hc         1 K1T       0.076700
     31 H3           1.6300     0.8520     1.9700 hc         1 K1T       0.034867
     32 H3A          3.1220     0.0610     1.4430 hc         1 K1T       0.034867
     33 H3B          1.7300    -0.9130     1.9350 hc         1 K1T       0.034867
     34 H4           1.5970    -2.1300    -0.2750 hc         1 K1T       0.022200
     35 H4A          3.1180    -1.3020    -0.6320 hc         1 K1T       0.022200
     36 H5           0.5870    -1.0120    -2.2870 hc         1 K1T       0.114700
     37 H7           2.1760     0.9030    -2.3520 hc         1 K1T       0.062700
     38 H7A          3.4710    -0.2080    -2.8190 hc         1 K1T       0.062700
     39 H12          2.9480    -0.8820    -7.3940 ha         1 K1T       0.121000
     40 H13          3.6450    -1.0290    -5.0360 ha         1 K1T       0.118000
     41 H15         -1.3760     0.0600    -7.8660 h2         1 K1T       0.057700
     42 H15A        -1.0470     1.6800    -8.6030 h2         1 K1T       0.057700
     43 H20          3.0760    -2.7000    -2.7270 h1         1 K1T       0.061200
     44 H20A         1.8340    -2.4080    -3.9530 h1         1 K1T       0.061200
     45 HN21         0.5250    -3.3820    -1.6370 hn         1 K1T       0.324500
     46 H24         -0.5040    -5.7480    -2.3780 hc         1 K1T       0.070200
     47 H24A         0.7360    -6.0390    -1.1510 hc         1 K1T       0.070200
     48 H25          0.7260    -7.1900    -3.9660 hc         1 K1T       0.081200
     49 H25A         1.9680    -7.4800    -2.7400 hc         1 K1T       0.081200
     50 H26          0.2670    -8.4910    -1.2560 hx         1 K1T       0.108700
     51 H26A        -0.9750    -8.1990    -2.4820 hx         1 K1T       0.108700
     52 HN27        -0.1180   -10.4150    -2.6000 hn         1 K1T       0.455133
     53 HN2A         0.2550    -9.5940    -3.9630 hn         1 K1T       0.455133
     54 H273         1.4030    -9.8630    -2.8320 hn         1 K1T       0.455133
@<TRIPOS>BOND
     1     1     2 1
     2     1    27 1
     3     1    28 1
     4     1    29 1
     5     4     2 1
     6     2     3 1
     7     2    30 1
     8     3    31 1
     9     3    32 1
    10     3    33 1
    11     5     4 1
    12     4    34 1
    13     4    35 1
    14    19     5 1
    15     5     6 1
    16     5    36 1
    17     7     6 1
    18     6    37 1
    19     6    38 1
    20    12     7 ar
    21     7     8 ar
    22     9     8 ar
    23     8    16 1
    24    10     9 ar
    25     9    15 1
    26    13    10 1
    27    11    10 ar
    28    11    12 ar
    29    11    39 1
    30    12    40 1
    31    13    14 1
    32    14    15 1
    33    14    41 1
    34    14    42 1
    35    16    18 1
    36    16    17 1
    37    19    20 1
    38    19    43 1
    39    19    44 1
    40    20    21 1
    41    20    45 1
    42    22    21 2
    43    21    23 1
    44    23    24 1
    45    23    46 1
    46    23    47 1
    47    24    25 1
    48    24    48 1
    49    24    49 1
    50    25    26 1
    51    25    50 1
    52    25    51 1
    53    26    52 1
    54    26    53 1
    55    54    26 1
@<TRIPOS>SUBSTRUCTURE
     1 K1T         1 TEMP              0 ****  ****    0 ROOT
