@<TRIPOS>MOLECULE
K1V
   27    27     1     0     0
SMALL
bcc


@<TRIPOS>ATOM
      1 N1           0.0000     0.0000     0.0000 nz         1 K1V       0.195600
      2 C4           3.6060    -0.0010    -1.0260 c3         1 K1V      -0.012400
      3 C5           2.1020     0.0000    -1.3050 c3         1 K1V      -0.147700
      4 C6           1.7360     1.2520    -2.1080 c3         1 K1V       0.059000
      5 C7           1.3480     0.0000     0.0000 c          1 K1V       0.320100
      6 N            2.5720     1.3030    -3.3140 n          1 K1V      -0.167800
      7 C            2.8850     1.4760    -5.7610 c3         1 K1V      -0.065100
      8 O            0.8070     1.4950    -4.6430 o          1 K1V      -0.639100
      9 C1           2.0130     1.4250    -4.5340 c          1 K1V       0.600100
     10 C2           4.0320     1.2190    -3.1650 c3         1 K1V       0.041000
     11 C3           4.3720    -0.0340    -2.3510 c3         1 K1V      -0.036400
     12 O1           1.9550     0.0000     1.0500 o          1 K1V      -0.392100
     13 H1          -0.3340    -0.3260     0.8850 hn         1 K1V       0.250133
     14 H2          -0.3340    -0.6040    -0.7250 hn         1 K1V       0.250133
     15 H3           3.8710     0.8970    -0.4800 hc         1 K1V       0.040700
     16 H4           3.8630    -0.8750    -0.4400 hc         1 K1V       0.040700
     17 H5           1.8430    -0.8820    -1.8770 hc         1 K1V       0.074700
     18 H6           1.9150     2.1340    -1.5050 h1         1 K1V       0.032700
     19 H7           0.6910     1.2060    -2.3930 h1         1 K1V       0.032700
     20 H8           3.6080     2.2760    -5.6570 hc         1 K1V       0.036033
     21 H9           2.2690     1.6570    -6.6340 hc         1 K1V       0.036033
     22 H10          3.4040     0.5320    -5.8750 hc         1 K1V       0.036033
     23 H11          4.3950     2.0980    -2.6460 h1         1 K1V       0.043700
     24 H12          4.4930     1.1510    -4.1430 h1         1 K1V       0.043700
     25 H13          5.4370    -0.0550    -2.1510 hc         1 K1V       0.038700
     26 H14          4.0860    -0.9160    -2.9110 hc         1 K1V       0.038700
     27 H131        -0.3340     0.9260    -0.1810 hn         1 K1V       0.250133
@<TRIPOS>BOND
     1     1     5 1   
     2     1    13 1   
     3     1    14 1   
     4     1    27 1   
     5     2     3 1   
     6     2    11 1   
     7     2    15 1   
     8     2    16 1   
     9     3     4 1   
    10     3     5 1   
    11     3    17 1   
    12     4     6 1   
    13     4    18 1   
    14     4    19 1   
    15     5    12 2   
    16     6     9 1   
    17     6    10 1   
    18     7     9 1   
    19     7    20 1   
    20     7    21 1   
    21     7    22 1   
    22     8     9 2   
    23    10    11 1   
    24    10    23 1   
    25    10    24 1   
    26    11    25 1   
    27    11    26 1   
@<TRIPOS>SUBSTRUCTURE
     1 K1V         1 TEMP              0 ****  ****    0 ROOT
