@<TRIPOS>MOLECULE
molecule
   27    27     1     0     0
SMALL
bcc


@<TRIPOS>ATOM
      1 N1           0.0000     0.0000     0.0000 nz         1 K1V      -0.685400
      2 C4           3.6060    -0.0010    -1.0260 c3         1 K1V      -0.066400
      3 C5           2.1020     0.0000    -1.3050 c3         1 K1V      -0.176700
      4 C6           1.7360     1.2520    -2.1080 c3         1 K1V       0.108000
      5 C7           1.3480     0.0000     0.0000 c          1 K1V       0.483100
      6 N            2.5720     1.3030    -3.3140 n          1 K1V      -0.497800
      7 C            2.8850     1.4760    -5.7610 c3         1 K1V      -0.165100
      8 O            0.8070     1.4950    -4.6430 o          1 K1V      -0.603100
      9 C1           2.0130     1.4250    -4.5340 c          1 K1V       0.669100
     10 C2           4.0320     1.2190    -3.1650 c3         1 K1V       0.096000
     11 C3           4.3720    -0.0340    -2.3510 c3         1 K1V      -0.098400
     12 O1           1.9550     0.0000     1.0500 o          1 K1V      -0.391100
     13 H1          -0.3340    -0.3260     0.8850 hn         1 K1V       0.480133
     14 H2          -0.3340    -0.6040    -0.7250 hn         1 K1V       0.480133
     15 H3           3.8710     0.8970    -0.4800 hc         1 K1V       0.072200
     16 H4           3.8630    -0.8750    -0.4400 hc         1 K1V       0.072200
     17 H5           1.8430    -0.8820    -1.8770 hc         1 K1V       0.105700
     18 H6           1.9150     2.1340    -1.5050 h1         1 K1V       0.062200
     19 H7           0.6910     1.2060    -2.3930 h1         1 K1V       0.062200
     20 H8           3.6080     2.2760    -5.6570 hc         1 K1V       0.074700
     21 H9           2.2690     1.6570    -6.6340 hc         1 K1V       0.074700
     22 H10          3.4040     0.5320    -5.8750 hc         1 K1V       0.074700
     23 H11          4.3950     2.0980    -2.6460 h1         1 K1V       0.071200
     24 H12          4.4930     1.1510    -4.1430 h1         1 K1V       0.071200
     25 H13          5.4370    -0.0550    -2.1510 hc         1 K1V       0.072700
     26 H14          4.0860    -0.9160    -2.9110 hc         1 K1V       0.072700
     27 H131        -0.3340     0.9260    -0.1810 hn         1 K1V       0.480133
@<TRIPOS>BOND
     1     7     9 1
     2     8     9 2
     3     9     6 1
     4     6    10 1
     5     6     4 1
     6    10    11 1
     7    11     2 1
     8     4     3 1
     9     3     2 1
    10     3     5 1
    11    12     5 2
    12     5     1 1
    13     1    13 1
    14     1    14 1
    15     2    15 1
    16     2    16 1
    17     3    17 1
    18     4    18 1
    19     4    19 1
    20     7    20 1
    21     7    21 1
    22     7    22 1
    23    10    23 1
    24    10    24 1
    25    11    25 1
    26    11    26 1
    27    27     1 1
@<TRIPOS>SUBSTRUCTURE
     1 K1V         1 TEMP              0 ****  ****    0 ROOT
