@<TRIPOS>MOLECULE
K1Y
   29    30     1     0     0
SMALL
bcc


@<TRIPOS>ATOM
      1 N1           0.0000     0.0000     0.0000 nc         1 K1Y      -0.532000
      2 C4          -2.0830     0.0020     1.3540 c3         1 K1Y       0.006600
      3 C5           1.3250     0.0000     0.0000 cc         1 K1Y       0.325800
      4 C6           2.1200    -0.0010    -1.2500 ca         1 K1Y      -0.114500
      5 C7           1.6610    -0.6940    -2.3710 ca         1 K1Y      -0.100000
      6 C8           2.4060    -0.6900    -3.5320 ca         1 K1Y      -0.095500
      7 C10          4.0600     0.6960    -2.4820 ca         1 K1Y      -0.095500
      8 N            3.2690     0.0000     1.4900 ns         1 K1Y       0.043900
      9 C            5.4350     0.0010     4.4140 c3         1 K1Y       0.288700
     10 O            5.0320     0.0000     3.0190 os         1 K1Y      -0.421900
     11 C1           3.7100     0.0000     2.7640 c          1 K1Y       0.649100
     12 C11          3.3270     0.6960    -1.3130 ca         1 K1Y      -0.100000
     13 C2           1.9000     0.0000     1.2270 cd         1 K1Y      -0.087800
     14 C3          -0.5900     0.0020     1.1470 cd         1 K1Y       0.412700
     15 C9           3.6050    -0.0020    -3.5870 ca         1 K1Y      -0.101000
     16 O1           2.9140     0.0010     3.6820 o          1 K1Y      -0.620000
     17 S            0.6130     0.0020     2.4310 ss         1 K1Y      -0.245300
     18 H1          -2.5000    -0.9270     0.9850 hc         1 K1Y       0.016033
     19 H2          -2.3010     0.1020     2.4100 hc         1 K1Y       0.016033
     20 H3          -2.5220     0.8330     0.8150 hc         1 K1Y       0.016033
     21 H4           0.7230    -1.2330    -2.3290 ha         1 K1Y       0.113000
     22 H5           2.0540    -1.2310    -4.4020 ha         1 K1Y       0.103500
     23 H6           4.9980     1.2350    -2.5320 ha         1 K1Y       0.103500
     24 H7           3.9230    -0.0420     0.7350 hn         1 K1Y       0.192500
     25 H8           6.5160    -0.0000     4.4770 h1         1 K1Y       0.003033
     26 H9           5.0440    -0.8840     4.9030 h1         1 K1Y       0.003033
     27 H10          5.0450     0.8850     4.9020 h1         1 K1Y       0.003033
     28 H11          3.6840     1.2420    -0.4480 ha         1 K1Y       0.113000
     29 H12          4.1850    -0.0000    -4.5020 ha         1 K1Y       0.103000
@<TRIPOS>BOND
     1     1     3 1   
     2     1    14 2   
     3     2    14 1   
     4     2    18 1   
     5     2    19 1   
     6     2    20 1   
     7     3     4 1   
     8     3    13 2   
     9     4     5 ar  
    10     4    12 ar  
    11     5     6 ar  
    12     5    21 1   
    13     6    15 ar  
    14     6    22 1   
    15     7    12 ar  
    16     7    15 ar  
    17     7    23 1   
    18     8    11 1   
    19     8    13 1   
    20     8    24 1   
    21     9    10 1   
    22     9    25 1   
    23     9    26 1   
    24     9    27 1   
    25    10    11 1   
    26    11    16 2   
    27    12    28 1   
    28    13    17 1   
    29    14    17 1   
    30    15    29 1   
@<TRIPOS>SUBSTRUCTURE
     1 K1Y         1 TEMP              0 ****  ****    0 ROOT
