@<TRIPOS>MOLECULE
K20
   79    83     1     0     0
SMALL
bcc


@<TRIPOS>ATOM
      1 C1           0.0000     0.0000     0.0000 c3         1 K20       0.433200
      2 O1           1.4390     0.0000     0.0000 os         1 K20      -0.310900
      3 C2           1.8040     0.0000     1.3150 ca         1 K20       0.108100
      4 O2          -0.3420     0.6370     1.2450 os         1 K20      -0.308900
      5 C3           0.7090     0.3910     2.0810 ca         1 K20       0.023100
      6 C4           0.8240     0.4700     3.4590 ca         1 K20       0.005000
      7 C5           2.0240     0.1610     4.0720 ca         1 K20      -0.167500
      8 C6           3.1110    -0.2280     3.3120 ca         1 K20       0.008000
      9 C7           3.0040    -0.3080     1.9360 ca         1 K20      -0.121000
     10 S8           2.1670     0.2640     5.8250 sy         1 K20       1.051200
     11 O9           3.5500     0.4430     6.1040 o          1 K20      -0.583300
     12 O10          1.1640     1.1700     6.2580 o          1 K20      -0.583300
     13 N11          1.7550    -1.2190     6.4380 n3         1 K20      -0.517500
     14 C12          2.7830    -2.2440     6.6310 c3         1 K20       0.231800
     15 C13          3.3180    -2.1670     8.0630 c3         1 K20      -0.079700
     16 C14          2.2010    -2.5330     9.0440 c3         1 K20      -0.012100
     17 C15          4.4810    -3.1460     8.2260 c3         1 K20      -0.020400
     18 C16          0.3610    -1.5040     6.7870 c3         1 K20       0.189800
     19 C17         -0.3310    -2.1850     5.6040 c3         1 K20       0.144100
     20 C18          5.0950    -2.9810     9.6180 c3         1 K20       0.002900
     21 O18          0.2680    -3.4600     5.3710 oh         1 K20      -0.579800
     22 C19         -1.8170    -2.3710     5.9220 c3         1 K20       0.011700
     23 N20         -2.5030    -2.9120     4.7460 ns         1 K20      -0.167900
     24 C21         -3.8240    -2.7010     4.5800 c          1 K20       0.674100
     25 O22         -4.4460    -2.0610     5.4060 o          1 K20      -0.642000
     26 O23         -4.4540    -3.1990     3.4990 os         1 K20      -0.414900
     27 C24         -5.8780    -2.9320     3.3860 c3         1 K20       0.170100
     28 C25         -6.1180    -1.6390     2.5870 c3         1 K20       0.189400
     29 O26         -6.8030    -2.0010     1.3790 os         1 K20      -0.417600
     30 C27         -7.5180    -3.2270     1.6270 c3         1 K20       0.398900
     31 O28         -7.5780    -3.9810     0.4080 os         1 K20      -0.397600
     32 C29         -6.4250    -4.8180     0.2820 c3         1 K20       0.216400
     33 C30         -5.5530    -4.6050     1.5360 c3         1 K20      -0.051400
     34 C31         -6.5670    -4.0380     2.5600 c3         1 K20      -0.124700
     35 C32         -1.9710    -3.3410     7.0940 c3         1 K20       0.010900
     36 C33         -4.2420    -4.3750     6.8960 ca         1 K20      -0.092000
     37 C34         -5.5740    -4.4550     7.2560 ca         1 K20      -0.092500
     38 C35         -6.0880    -3.5910     8.2040 ca         1 K20      -0.099000
     39 C36         -5.2690    -2.6460     8.7940 ca         1 K20      -0.092500
     40 C37         -3.9370    -2.5650     8.4340 ca         1 K20      -0.092000
     41 C38         -3.4230    -3.4290     7.4860 ca         1 K20      -0.079300
     42 H1          -0.3680    -1.0190    -0.0050 h2         1 K20       0.017200
     43 H1A         -0.3680     0.5920    -0.8290 h2         1 K20       0.017200
     44 H4          -0.0270     0.7750     4.0570 ha         1 K20       0.133000
     45 H6           4.0500    -0.4690     3.7960 ha         1 K20       0.129000
     46 H7           3.8580    -0.6130     1.3440 ha         1 K20       0.120000
     47 H12          3.5950    -2.0770     5.9330 h1         1 K20       0.027200
     48 H12A         2.3540    -3.2240     6.4580 h1         1 K20       0.027200
     49 H13          3.6620    -1.1600     8.2670 hc         1 K20       0.051700
     50 H14          2.6290    -2.7350    10.0180 hc         1 K20       0.009033
     51 H14A         1.6810    -3.4140     8.6880 hc         1 K20       0.009033
     52 H14B         1.5040    -1.7080     9.1210 hc         1 K20       0.009033
     53 H15          5.2330    -2.9420     7.4740 hc         1 K20       0.012700
     54 H15A         4.1180    -4.1600     8.1100 hc         1 K20       0.012700
     55 H16          0.3320    -2.1600     7.6490 h1         1 K20       0.056700
     56 H16A        -0.1500    -0.5780     7.0210 h1         1 K20       0.056700
     57 H17         -0.2240    -1.5680     4.7200 h1         1 K20       0.010700
     58 H18          6.1470    -3.2390     9.5810 hc         1 K20       0.003367
     59 H18A         4.9870    -1.9530     9.9410 hc         1 K20       0.003367
     60 H18B         4.5870    -3.6350    10.3170 hc         1 K20       0.003367
     61 HO18         0.4200    -3.5710     4.4470 ho         1 K20       0.388000
     62 H19         -2.2520    -1.4140     6.1850 h1         1 K20       0.070700
     63 HN20        -1.9880    -3.4250     4.0580 hn         1 K20       0.169500
     64 H24         -6.3330    -2.8570     4.3660 h1         1 K20       0.055700
     65 H25         -5.1690    -1.1750     2.3460 h1         1 K20       0.021700
     66 H25A        -6.7310    -0.9580     3.1660 h1         1 K20       0.021700
     67 H27         -8.4930    -3.0620     2.0670 h2         1 K20       0.040700
     68 H29         -5.8660    -4.5400    -0.6040 h1         1 K20       0.005700
     69 H29A        -6.7310    -5.8550     0.2200 h1         1 K20       0.005700
     70 H30         -4.7660    -3.8860     1.3380 hc         1 K20       0.033700
     71 H30A        -5.1450    -5.5470     1.8830 hc         1 K20       0.033700
     72 H31         -7.0710    -4.7910     3.1530 hc         1 K20       0.057700
     73 H32         -1.6160    -4.3210     6.8000 hc         1 K20       0.033200
     74 H32A        -1.3900    -2.9840     7.9360 hc         1 K20       0.033200
     75 H34         -6.2150    -5.1960     6.7940 ha         1 K20       0.098000
     76 H35         -7.1320    -3.6550     8.4860 ha         1 K20       0.098000
     77 H36         -5.6720    -1.9680     9.5380 ha         1 K20       0.098000
     78 H37         -3.2950    -1.8240     8.8960 ha         1 K20       0.100000
     79 H33         -3.8390    -5.0520     6.1530 ha         1 K20       0.100000
@<TRIPOS>BOND
     1     1     2 1   
     2     1     4 1   
     3     1    42 1   
     4     1    43 1   
     5     2     3 1   
     6     3     5 ar  
     7     3     9 ar  
     8     4     5 1   
     9     5     6 ar  
    10     6     7 ar  
    11     6    44 1   
    12     7     8 ar  
    13     7    10 1   
    14     8     9 ar  
    15     8    45 1   
    16     9    46 1   
    17    10    11 2   
    18    10    12 2   
    19    10    13 1   
    20    13    14 1   
    21    13    18 1   
    22    14    15 1   
    23    14    47 1   
    24    14    48 1   
    25    15    16 1   
    26    15    17 1   
    27    15    49 1   
    28    16    50 1   
    29    16    51 1   
    30    16    52 1   
    31    17    20 1   
    32    17    53 1   
    33    17    54 1   
    34    18    19 1   
    35    18    55 1   
    36    18    56 1   
    37    19    21 1   
    38    19    22 1   
    39    19    57 1   
    40    20    58 1   
    41    20    59 1   
    42    20    60 1   
    43    21    61 1   
    44    22    23 1   
    45    22    35 1   
    46    22    62 1   
    47    23    24 1   
    48    23    63 1   
    49    24    25 2   
    50    24    26 1   
    51    26    27 1   
    52    27    28 1   
    53    27    34 1   
    54    27    64 1   
    55    28    29 1   
    56    28    65 1   
    57    28    66 1   
    58    29    30 1   
    59    30    31 1   
    60    30    34 1   
    61    30    67 1   
    62    31    32 1   
    63    32    33 1   
    64    32    68 1   
    65    32    69 1   
    66    33    34 1   
    67    33    70 1   
    68    33    71 1   
    69    34    72 1   
    70    35    41 1   
    71    35    73 1   
    72    35    74 1   
    73    36    37 ar  
    74    36    41 ar  
    75    36    79 1   
    76    37    38 ar  
    77    37    75 1   
    78    38    39 ar  
    79    38    76 1   
    80    39    40 ar  
    81    39    77 1   
    82    40    41 ar  
    83    40    78 1   
@<TRIPOS>SUBSTRUCTURE
     1 K20         1 TEMP              0 ****  ****    0 ROOT
