@<TRIPOS>MOLECULE
K21
   62    65     1     0     0
SMALL
bcc


@<TRIPOS>ATOM
      1 C1           0.0000     0.0000     0.0000 ca         1 K21       0.157100
      2 C2           1.3870     0.0000     0.0000 ca         1 K21      -0.127000
      3 C3           2.0730     0.0000     1.2000 ca         1 K21      -0.037300
      4 C4           1.3760    -0.0170     2.3900 ca         1 K21      -0.017100
      5 C5          -0.0120    -0.0200     2.3970 ca         1 K21      -0.001000
      6 C6          -0.6990    -0.0100     1.1990 ca         1 K21      -0.236000
      7 C10          3.5840     0.0160     1.1960 c3         1 K21       0.095300
      8 N11          4.0450     1.3380     1.6360 n          1 K21      -0.145800
      9 C12          4.2560     1.6280     3.0430 c3         1 K21       0.029000
     10 C13          2.9780     1.6310     3.8710 c3         1 K21       0.065700
     11 S14          2.2690    -0.0420     3.9190 ss         1 K21      -0.356000
     12 C21          4.2760     2.2970     0.7190 c          1 K21       0.587100
     13 C22          4.7480     3.6600     1.1570 c3         1 K21      -0.118400
     14 O23          4.1030     2.0670    -0.4580 o          1 K21      -0.643100
     15 C24          4.9330     4.5550    -0.0690 c3         1 K21       0.151800
     16 N27          5.3940     5.8820     0.3590 n3         1 K21      -0.525600
     17 C30          5.5500     6.6870    -0.8570 c3         1 K21       0.137800
     18 C31          6.0240     8.0940    -0.4900 c3         1 K21      -0.030400
     19 C32          4.9720     8.7640     0.3980 c3         1 K21      -0.048700
     20 C33          4.7080     7.8730     1.6150 c3         1 K21      -0.030400
     21 C34          4.3030     6.4760     1.1380 c3         1 K21       0.137800
     22 C43          5.4870    10.1270     0.8630 c3         1 K21       0.033900
     23 C45          4.4620    10.5720     3.1020 ca         1 K21      -0.101000
     24 C48          3.5110    11.1760     3.9030 ca         1 K21      -0.099000
     25 C49          2.5490    11.9910     3.3390 ca         1 K21      -0.106000
     26 C50          2.5380    12.2040     1.9740 ca         1 K21      -0.099000
     27 C51          3.4910    11.6050     1.1740 ca         1 K21      -0.101000
     28 C52          4.4510    10.7850     1.7360 ca         1 K21      -0.087300
     29 O58         -0.6780     0.0050    -1.1780 os         1 K21      -0.276900
     30 C59         -2.0700    -0.0030    -0.8550 c3         1 K21       0.214700
     31 H2           1.9300     0.0080    -0.9370 ha         1 K21       0.137000
     32 H5          -0.5520    -0.0280     3.3360 ha         1 K21       0.117000
     33 H6          -1.7820    -0.0100     1.1960 ha         1 K21       0.137000
     34 H101         3.9560    -0.7420     1.8750 h1         1 K21       0.052700
     35 H102         3.9450    -0.1780     0.1930 h1         1 K21       0.052700
     36 H121         4.7210     2.6030     3.1270 h1         1 K21       0.037200
     37 H122         4.9280     0.8820     3.4510 h1         1 K21       0.037200
     38 H131         3.2200     1.9340     4.8830 h1         1 K21       0.054700
     39 H132         2.2640     2.2980     3.4050 h1         1 K21       0.054700
     40 H221         5.6930     3.5640     1.6790 hc         1 K21       0.041200
     41 H222         4.0130     4.1010     1.8190 hc         1 K21       0.041200
     42 H241         5.6670     4.1140    -0.7310 h1         1 K21       0.028200
     43 H242         3.9880     4.6520    -0.5900 h1         1 K21       0.028200
     44 H301         4.5980     6.7510    -1.3690 h1         1 K21       0.013450
     45 H302         6.2820     6.2190    -1.5050 h1         1 K21       0.013450
     46 H311         6.9620     8.0300     0.0470 hc         1 K21       0.024700
     47 H312         6.1570     8.6770    -1.3940 hc         1 K21       0.024700
     48 H32          4.0530     8.8900    -0.1630 hc         1 K21       0.030700
     49 H331         3.9070     8.2990     2.2070 hc         1 K21       0.024700
     50 H332         5.6090     7.8030     2.2120 hc         1 K21       0.024700
     51 H341         3.4180     6.5520     0.5170 h1         1 K21       0.013450
     52 H342         4.0930     5.8510     1.9980 h1         1 K21       0.013450
     53 H431         6.4020     9.9940     1.4270 hc         1 K21       0.020700
     54 H432         5.6820    10.7530     0.0010 hc         1 K21       0.020700
     55 H48          3.5200    11.0090     4.9740 ha         1 K21       0.102000
     56 H49          1.8030    12.4630     3.9670 ha         1 K21       0.102000
     57 H50          1.7850    12.8450     1.5320 ha         1 K21       0.102000
     58 H51          3.4820    11.7720     0.1030 ha         1 K21       0.107000
     59 H591        -2.6530    -0.0010    -1.7690 h1         1 K21       0.003700
     60 H592        -2.3020    -0.8920    -0.2810 h1         1 K21       0.003700
     61 H593        -2.3110     0.8770    -0.2720 h1         1 K21       0.003700
     62 H45          5.2170     9.9330     3.5440 ha         1 K21       0.107000
@<TRIPOS>BOND
     1     1     2 ar  
     2     1     6 ar  
     3     1    29 1   
     4     2     3 ar  
     5     2    31 1   
     6     3     4 ar  
     7     3     7 1   
     8     4     5 ar  
     9     4    11 1   
    10     5     6 ar  
    11     5    32 1   
    12     6    33 1   
    13     7     8 1   
    14     7    34 1   
    15     7    35 1   
    16     8     9 1   
    17     8    12 1   
    18     9    10 1   
    19     9    36 1   
    20     9    37 1   
    21    10    11 1   
    22    10    38 1   
    23    10    39 1   
    24    12    13 1   
    25    12    14 2   
    26    13    15 1   
    27    13    40 1   
    28    13    41 1   
    29    15    16 1   
    30    15    42 1   
    31    15    43 1   
    32    16    17 1   
    33    16    21 1   
    34    17    18 1   
    35    17    44 1   
    36    17    45 1   
    37    18    19 1   
    38    18    46 1   
    39    18    47 1   
    40    19    20 1   
    41    19    22 1   
    42    19    48 1   
    43    20    21 1   
    44    20    49 1   
    45    20    50 1   
    46    21    51 1   
    47    21    52 1   
    48    22    28 1   
    49    22    53 1   
    50    22    54 1   
    51    23    24 ar  
    52    23    28 ar  
    53    23    62 1   
    54    24    25 ar  
    55    24    55 1   
    56    25    26 ar  
    57    25    56 1   
    58    26    27 ar  
    59    26    57 1   
    60    27    28 ar  
    61    27    58 1   
    62    29    30 1   
    63    30    59 1   
    64    30    60 1   
    65    30    61 1   
@<TRIPOS>SUBSTRUCTURE
     1 K21         1 TEMP              0 ****  ****    0 ROOT
