@<TRIPOS>MOLECULE
K22
   16    17     1     0     0
SMALL
bcc


@<TRIPOS>ATOM
      1 Br1          0.0000     0.0000     0.0000 br         1 K22      -0.054100
      2 C5           1.8970     0.0000     0.0000 ca         1 K22       0.048100
      3 C2           2.6930     0.0000     1.1510 ca         1 K22       0.065600
      4 Br2          1.8270     0.0050     2.8680 br         1 K22      -0.062100
      5 C7           2.5570    -0.0010    -1.2070 ca         1 K22      -0.147900
      6 N14          2.0360    -0.0020    -2.5040 ns         1 K22       0.118900
      7 C13          3.1190    -0.0020    -3.4120 cs         1 K22       0.219400
      8 S10          3.0180    -0.0040    -5.0650 s          1 K22      -0.580400
      9 N6           4.3050    -0.0010    -2.6430 ns         1 K22       0.118900
     10 C8           3.9480    -0.0010    -1.2930 ca         1 K22      -0.147900
     11 C4           4.7510     0.0000    -0.1750 ca         1 K22       0.048100
     12 Br4          6.6340    -0.0040    -0.4080 br         1 K22      -0.054100
     13 C3           4.1030     0.0000     1.0640 ca         1 K22       0.065600
     14 Br3          5.1730     0.0010     2.6620 br         1 K22      -0.062100
     15 H6           5.2390    -0.0010    -3.0040 hn         1 K22       0.211500
     16 H14          1.0660    -0.0020    -2.7470 hn         1 K22       0.211500
@<TRIPOS>BOND
     1     1     2 1   
     2     2     3 ar  
     3     2     5 ar  
     4     3     4 1   
     5     3    13 ar  
     6     5     6 1   
     7     5    10 ar  
     8     6     7 1   
     9     6    16 1   
    10     7     8 2   
    11     7     9 1   
    12     9    10 1   
    13     9    15 1   
    14    10    11 ar  
    15    11    12 1   
    16    11    13 ar  
    17    13    14 1   
@<TRIPOS>SUBSTRUCTURE
     1 K22         1 TEMP              0 ****  ****    0 ROOT
