@<TRIPOS>MOLECULE
K23
   48    52     1     0     0
SMALL
bcc


@<TRIPOS>ATOM
      1 C1          0.5700   -0.6980   -0.4590 ca        1 K23      0.016400
      2 CL2         0.1740   -0.9080   -2.1110 cl        1 K23     -0.142400
      3 C3          1.9270   -0.6600   -0.0890 ca        1 K23     -0.161000
      4 C4          2.2920   -0.4930    1.2400 ca        1 K23     -0.082000
      5 C5          1.3000   -0.3630    2.2110 ca        1 K23     -0.059800
      6 C6         -0.0930   -0.4030    1.8100 ca        1 K23     -0.062200
      7 C7         -0.4590   -0.5720    0.4680 ca        1 K23     -0.139000
      8 N8         -0.8700   -0.2160    2.9510 na        1 K23     -0.167400
      9 C9         -0.0350   -0.0940    4.0660 cc        1 K23     -0.036300
     10 C10        -0.6830    0.0900    5.4420 c         1 K23      0.933800
     11 O11        -0.1460    0.9020    6.2390 o         1 K23     -0.806300
     12 O12        -1.7410   -0.5580    5.6510 o         1 K23     -0.806300
     13 C13         1.3060   -0.1730    3.6490 cd        1 K23     -0.135400
     14 C14         2.5010   -0.1060    4.4410 cd        1 K23     -0.053400
     15 C15         3.4900   -1.1010    4.6970 cc        1 K23      0.317800
     16 C16         3.4620   -2.4960    4.2980 ca        1 K23     -0.075500
     17 C17         4.6560   -3.1900    4.0460 ca        1 K23     -0.115000
     18 C18         4.6220   -4.5320    3.6730 ca        1 K23     -0.142000
     19 C19         3.4040   -5.1980    3.5490 ca        1 K23     -0.149000
     20 C20         2.2140   -4.5160    3.8030 ca        1 K23     -0.142000
     21 C21         2.2390   -3.1750    4.1780 ca        1 K23     -0.115000
     22 N22         4.5360   -0.5450    5.4510 nc        1 K23     -0.677000
     23 C23         4.1970    0.7410    5.6600 cd        1 K23      0.371400
     24 N24         2.9720    1.0630    5.0600 na        1 K23     -0.174900
     25 C25         2.2910    2.3260    5.1170 c3        1 K23      0.065600
     26 C26         2.6070    3.1440    6.3360 ca        1 K23     -0.098300
     27 C27         3.5930    4.1350    6.2920 ca        1 K23     -0.100500
     28 C28         3.8510    4.9220    7.4130 ca        1 K23     -0.141000
     29 C29         3.1170    4.7080    8.5820 ca        1 K23      0.018400
     30 CL30        3.4310    5.6690    9.9570 cl        1 K23     -0.127400
     31 C31         2.1310    3.7190    8.6380 ca        1 K23     -0.141000
     32 C32         1.8760    2.9370    7.5120 ca        1 K23     -0.100500
     33 H3          2.7030   -0.7670   -0.8610 ha        1 K23      0.131000
     34 H4          3.3520   -0.4710    1.5310 ha        1 K23      0.142000
     35 H7         -1.5130   -0.6050    0.1650 ha        1 K23      0.137000
     36 HN8        -1.8480   -0.3410    3.0210 hn        1 K23      0.312700
     37 H17         5.6220   -2.6740    4.1480 ha        1 K23      0.148500
     38 H18         5.5620   -5.0670    3.4770 ha        1 K23      0.118000
     39 H19         3.3800   -6.2560    3.2530 ha        1 K23      0.113000
     40 H20         1.2500   -5.0360    3.7090 ha        1 K23      0.118000
     41 H21         1.3000   -2.6340    4.3800 ha        1 K23      0.148500
     42 H23         4.7720    1.4700    6.2370 h5        1 K23      0.052100
     43 H25         2.5660    2.9160    4.1930 h1        1 K23      0.090200
     44 H25A        1.1730    2.1140    5.0980 h1        1 K23      0.090200
     45 H27         4.1670    4.2980    5.3680 ha        1 K23      0.172000
     46 H28         4.6250    5.7010    7.3740 ha        1 K23      0.140500
     47 H31         1.5550    3.5540    9.5610 ha        1 K23      0.140500
     48 H32         1.0910    2.1530    7.5320 ha        1 K23      0.172000
@<TRIPOS>BOND
     1    1    2 1   
     2    1    3 ar  
     3    1    7 ar  
     4    3    4 ar  
     5    3   33 1   
     6    4    5 ar  
     7    4   34 1   
     8    5    6 ar  
     9    5   13 1   
    10    6    7 ar  
    11    6    8 1   
    12    7   35 1   
    13    8    9 1   
    14    8   36 1   
    15    9   10 1   
    16    9   13 2   
    17   10   11 1   
    18   10   12 1   
    19   13   14 1   
    20   14   15 2   
    21   14   24 1   
    22   15   16 1   
    23   15   22 1   
    24   16   17 ar  
    25   16   21 ar  
    26   17   18 ar  
    27   17   37 1   
    28   18   19 ar  
    29   18   38 1   
    30   19   20 ar  
    31   19   39 1   
    32   20   21 ar  
    33   20   40 1   
    34   21   41 1   
    35   22   23 2   
    36   23   24 1   
    37   23   42 1   
    38   24   25 1   
    39   25   26 1   
    40   25   43 1   
    41   25   44 1   
    42   26   27 ar  
    43   26   32 ar  
    44   27   28 ar  
    45   27   45 1   
    46   28   29 ar  
    47   28   46 1   
    48   29   30 1   
    49   29   31 ar  
    50   31   32 ar  
    51   31   47 1   
    52   32   48 1   
@<TRIPOS>SUBSTRUCTURE
     1 K23         1 TEMP              0 ****  ****    0 ROOT
