@<TRIPOS>MOLECULE
molecule
   48    52     1     0     0
SMALL
bcc


@<TRIPOS>ATOM
      1 C1           0.0000     0.0000     0.0000 ca         1 K23       0.029400
      2 Cl2         -0.8590    -0.0020    -1.5090 cl         1 K23      -0.147400
      3 C3           1.3890     0.0000     0.0000 ca         1 K23      -0.165000
      4 C4           2.0820     0.0000     1.1770 ca         1 K23      -0.076000
      5 C5           1.3910     0.0020     2.3910 ca         1 K23      -0.083800
      6 C6          -0.0160     0.0020     2.3990 ca         1 K23      -0.053200
      7 C7          -0.7030     0.0070     1.1860 ca         1 K23      -0.137000
      8 N8          -0.4370     0.0050     3.7090 na         1 K23      -0.153400
      9 C9           0.6540     0.0040     4.5580 cc         1 K23      -0.015300
     10 C10          0.5950     0.0060     5.9750 c          1 K23       0.864800
     11 O11         -0.6010     0.0100     6.6010 o          1 K23      -0.805300
     12 O12          1.6230     0.0060     6.6270 o          1 K23      -0.805300
     13 C13          1.8160     0.0030     3.7970 cd         1 K23      -0.116400
     14 C14          3.1960     0.0020     4.3000 cd         1 K23      -0.075400
     15 C15          3.9800    -1.1070     4.5860 cc         1 K23       0.370800
     16 C16          3.5790    -2.5250     4.4410 ca         1 K23      -0.074500
     17 C17          4.5150    -3.4820     4.0470 ca         1 K23      -0.105500
     18 C18          4.1350    -4.8010     3.9140 ca         1 K23      -0.143000
     19 C19          2.8290    -5.1770     4.1730 ca         1 K23      -0.148000
     20 C20          1.8950    -4.2340     4.5640 ca         1 K23      -0.143000
     21 C21          2.2640    -2.9120     4.7060 ca         1 K23      -0.105500
     22 N22          5.1700    -0.6560     5.0170 nc         1 K23      -0.695000
     23 C23          5.1720     0.6480     5.0150 cd         1 K23       0.377400
     24 N24          3.9790     1.1020     4.5760 na         1 K23      -0.165900
     25 C25          3.5860     2.5050     4.4240 c3         1 K23       0.098600
     26 C26          2.8570     2.9610     5.6620 ca         1 K23      -0.108300
     27 C27          3.5620     3.5120     6.7160 ca         1 K23      -0.087500
     28 C28          2.8940     3.9290     7.8510 ca         1 K23      -0.109000
     29 C29          1.5190     3.7950     7.9340 ca         1 K23       0.041400
     30 Cl30         0.6800     4.3190     9.3600 cl         1 K23      -0.135400
     31 C31          0.8150     3.2430     6.8790 ca         1 K23      -0.109000
     32 C32          1.4830     2.8310     5.7410 ca         1 K23      -0.087500
     33 H3           1.9270    -0.0000    -0.9400 ha         1 K23       0.128000
     34 H4           3.1650     0.0000     1.1690 ha         1 K23       0.135000
     35 H7          -1.7840    -0.0600     1.1750 ha         1 K23       0.131000
     36 HN8         -1.3940     0.0060     4.0040 hn         1 K23       0.317700
     37 H17          5.5380    -3.1880     3.8440 ha         1 K23       0.150000
     38 H18          4.8610    -5.5440     3.6080 ha         1 K23       0.117000
     39 H19          2.5350    -6.2140     4.0650 ha         1 K23       0.109000
     40 H20          0.8740    -4.5350     4.7670 ha         1 K23       0.117000
     41 H21          1.5320    -2.1740     5.0120 ha         1 K23       0.150000
     42 H23          6.0050     1.2720     5.3160 h5         1 K23       0.045100
     43 H25          2.9360     2.6080     3.5640 h1         1 K23       0.057700
     44 H25A         4.4710     3.1140     4.2820 h1         1 K23       0.057700
     45 H27          4.6390     3.6180     6.6510 ha         1 K23       0.135000
     46 H28          3.4460     4.3610     8.6770 ha         1 K23       0.143000
     47 H31         -0.2610     3.1400     6.9420 ha         1 K23       0.143000
     48 H32          0.9310     2.3990     4.9150 ha         1 K23       0.135000
@<TRIPOS>BOND
     1     1     2 1
     2     1     3 ar
     3     1     7 ar
     4     3     4 ar
     5     4     5 ar
     6     5     6 ar
     7     5    13 1
     8     6     7 ar
     9     6     8 1
    10     8     9 1
    11     9    10 1
    12     9    13 2
    13    10    11 1
    14    10    12 1
    15    13    14 1
    16    14    15 2
    17    14    24 1
    18    15    16 1
    19    15    22 1
    20    16    17 ar
    21    16    21 ar
    22    17    18 ar
    23    18    19 ar
    24    19    20 ar
    25    20    21 ar
    26    22    23 2
    27    23    24 1
    28    24    25 1
    29    25    26 1
    30    26    27 ar
    31    26    32 ar
    32    27    28 ar
    33    28    29 ar
    34    29    30 1
    35    29    31 ar
    36    31    32 ar
    37     3    33 1
    38     4    34 1
    39     7    35 1
    40     8    36 1
    41    17    37 1
    42    18    38 1
    43    19    39 1
    44    20    40 1
    45    21    41 1
    46    23    42 1
    47    25    43 1
    48    25    44 1
    49    27    45 1
    50    28    46 1
    51    31    47 1
    52    32    48 1
@<TRIPOS>SUBSTRUCTURE
     1 K23         1 TEMP              0 ****  ****    0 ROOT
