@<TRIPOS>MOLECULE
K24
   18    18     1     0     0
SMALL
bcc


@<TRIPOS>ATOM
      1 N1           0.0000     0.0000     0.0000 nc         1 K24      -0.576000
      2 C4           1.2940     0.0000     0.0000 cd         1 K24       0.460700
      3 C5           2.1540    -0.0000    -1.2380 c3         1 K24      -0.007400
      4 N            0.7990    -0.0000     4.6000 ns         1 K24      -0.190900
      5 C            0.4090     0.0000     6.0120 c3         1 K24       0.088300
      6 O           -1.3250     0.0000     3.9450 o          1 K24      -0.639100
      7 C1          -0.1470     0.0000     3.6390 c          1 K24       0.636700
      8 C2           0.2430     0.0000     2.2250 cd         1 K24      -0.195000
      9 C3          -0.6010     0.0000     1.1640 cc         1 K24       0.436200
     10 S            1.8910     0.0000     1.6020 ss         1 K24      -0.308300
     11 H1           2.7590     0.8990    -1.2580 hc         1 K24       0.021700
     12 H2           2.8000    -0.8700    -1.2290 hc         1 K24       0.021700
     13 H3           1.5220    -0.0290    -2.1170 hc         1 K24       0.021700
     14 H4           1.7670     0.0020     4.3480 hn         1 K24       0.176500
     15 H5          -0.1840     0.8810     6.2230 h1         1 K24       0.011033
     16 H6           1.2980     0.0060     6.6320 h1         1 K24       0.011033
     17 H7          -0.1740    -0.8880     6.2260 h1         1 K24       0.011033
     18 H8          -1.6790    -0.0000     1.2690 h4         1 K24       0.020100
@<TRIPOS>BOND
     1     1     2 2   
     2     1     9 1   
     3     2     3 1   
     4     2    10 1   
     5     3    11 1   
     6     3    12 1   
     7     3    13 1   
     8     4     5 1   
     9     4     7 1   
    10     4    14 1   
    11     5    15 1   
    12     5    16 1   
    13     5    17 1   
    14     6     7 2   
    15     7     8 1   
    16     8     9 2   
    17     8    10 1   
    18     9    18 1   
@<TRIPOS>SUBSTRUCTURE
     1 K24         1 TEMP              0 ****  ****    0 ROOT
