@<TRIPOS>MOLECULE
K25
   23    24     1     0     0
SMALL
bcc


@<TRIPOS>ATOM
      1 C2           0.0000     0.0000     0.0000 ca         1 K25       0.044100
      2 C3           1.3880     0.0000     0.0000 ca         1 K25       0.041100
      3 C4           2.0880     0.0000     1.1910 ca         1 K25       0.075100
      4 C5          -0.6980     0.0000     1.1890 ca         1 K25       0.085100
      5 N6           1.7910    -0.0000     3.7250 na         1 K25       0.230700
      6 C7          -0.0040     0.0010     2.4020 ca         1 K25       0.134400
      7 C8           1.4000     0.0000     2.3950 ca         1 K25      -0.258200
      8 C13          0.6550     0.0000     4.4820 cc         1 K25       0.365700
      9 N14         -0.3990    -0.0040     3.7030 nd         1 K25      -0.588100
     10 N15          0.6200    -0.0010     5.8610 nh         1 K25      -0.431600
     11 C16          1.8710    -0.0020     6.6240 c3         1 K25       0.212600
     12 C17         -0.6660     0.0000     6.5620 c3         1 K25       0.212600
     13 Br1         -0.9400    -0.0010    -1.6410 br         1 K25      -0.073100
     14 Br9          2.3280    -0.0010    -1.6420 br         1 K25      -0.073100
     15 Br10         3.9790    -0.0010     1.1790 br         1 K25      -0.107100
     16 Br11        -2.5890    -0.0010     1.1780 br         1 K25      -0.076100
     17 HN6          2.7320     0.0030     4.0670 hn         1 K25       0.140700
     18 H161         2.4670    -0.8610     6.3410 h1         1 K25       0.010700
     19 H162         2.4240     0.9060     6.4130 h1         1 K25       0.010700
     20 H163         1.6480    -0.0510     7.6830 h1         1 K25       0.010700
     21 H171        -1.1010    -0.9910     6.5190 h1         1 K25       0.010700
     22 H172        -1.3350     0.7080     6.0880 h1         1 K25       0.010700
     23 H173        -0.5130     0.2830     7.5960 h1         1 K25       0.010700
@<TRIPOS>BOND
     1     1     2 ar  
     2     1     4 ar  
     3     1    13 1   
     4     2     3 ar  
     5     2    14 1   
     6     3     7 ar  
     7     3    15 1   
     8     4     6 ar  
     9     4    16 1   
    10     5     7 1   
    11     5     8 1   
    12     5    17 1   
    13     6     7 ar  
    14     6     9 1   
    15     8     9 2   
    16     8    10 1   
    17    10    11 1   
    18    10    12 1   
    19    11    18 1   
    20    11    19 1   
    21    11    20 1   
    22    12    21 1   
    23    12    22 1   
    24    12    23 1   
@<TRIPOS>SUBSTRUCTURE
     1 K25         1 TEMP              0 ****  ****    0 ROOT
