@<TRIPOS>MOLECULE
molecule
   69    70     1     0     0
SMALL
bcc


@<TRIPOS>ATOM
      1 CAR          0.0000     0.0000     0.0000 ca         1 K26      -0.123000
      2 CAN          1.3810     0.0000     0.0000 ca         1 K26      -0.156000
      3 CBD          2.0740     0.0000     1.2020 ca         1 K26       0.046100
      4 OAI          3.4330     0.0000     1.2040 oh         1 K26      -0.532100
      5 CAO          1.3770     0.0000     2.4020 ca         1 K26      -0.156000
      6 CAS         -0.0040     0.0000     2.3970 ca         1 K26      -0.123000
      7 CBF         -0.6920    -0.0010     1.1970 ca         1 K26      -0.036300
      8 CAV         -2.2000    -0.0000     1.1940 c3         1 K26      -0.036100
      9 CBI         -2.7100    -1.4390     1.0970 c3         1 K26      -0.023500
     10 PBK         -4.5260    -1.4510     1.2470 p5         1 K26       1.007700
     11 OAJ         -5.0740    -2.9470     1.0140 o          1 K26      -0.893833
     12 OAK         -4.9470    -0.9490     2.7170 o          1 K26      -0.893833
     13 OAG         -5.1110    -0.5480     0.2300 o          1 K26      -0.893833
     14 NAY         -2.3220    -2.0080    -0.1960 ns         1 K26      -0.503900
     15 C           -1.8080    -3.2520    -0.2570 c          1 K26       0.645100
     16 O           -1.6660    -3.9010     0.7580 o          1 K26      -0.633100
     17 CA          -1.4090    -3.8380    -1.5870 c3         1 K26       0.040700
     18 N           -0.8820    -5.1900    -1.3880 ns         1 K26      -0.556900
     19 CBB         -0.0230    -5.7180    -2.2830 c          1 K26       0.639100
     20 OAF          0.3120    -5.0730    -3.2540 o          1 K26      -0.590100
     21 CBJ          0.5180    -7.1090    -2.0770 c3         1 K26       0.054700
     22 CBG          1.6630    -7.0660    -1.0620 c3         1 K26      -0.091700
     23 CAC          1.1430    -6.5190     0.2690 c3         1 K26      -0.096100
     24 CAT          2.2130    -8.4780    -0.8530 c3         1 K26      -0.078400
     25 CAA          3.4350    -8.4180     0.0640 c3         1 K26      -0.090100
     26 NAX          1.0160    -7.6320    -3.3520 ns         1 K26      -0.577900
     27 CAZ          2.0060    -6.9900    -4.0040 c          1 K26       0.665100
     28 CAB          2.5170    -7.5290    -5.3150 c3         1 K26      -0.165100
     29 OAD          2.4840    -5.9790    -3.5350 o          1 K26      -0.574100
     30 CB          -2.6320    -3.8970    -2.5060 c3         1 K26      -0.057100
     31 CG          -2.2100    -4.3670    -3.8740 ca         1 K26      -0.041300
     32 CD1         -2.2100    -5.7170    -4.1700 ca         1 K26      -0.104500
     33 CE1         -1.8230    -6.1510    -5.4240 ca         1 K26      -0.149000
     34 CZ          -1.4350    -5.2300    -6.3860 ca         1 K26       0.073100
     35 OH          -1.0560    -5.6530    -7.6200 oh         1 K26      -0.535100
     36 CE2         -1.4380    -3.8750    -6.0860 ca         1 K26      -0.149000
     37 CD2         -1.8300    -3.4470    -4.8320 ca         1 K26      -0.104500
     38 HAR         -0.5410     0.0480    -0.9370 ha         1 K26       0.136500
     39 HAN          1.9230     0.0360    -0.9370 ha         1 K26       0.114500
     40 HAI          3.7470     0.8840     1.2980 ho         1 K26       0.390000
     41 HAO          1.9150     0.0490     3.3410 ha         1 K26       0.114500
     42 HAS         -0.5490     0.0240     3.3330 ha         1 K26       0.136500
     43 HAV1        -2.5620     0.4500     2.1110 hc         1 K26       0.068700
     44 HAV2        -2.5590     0.5690     0.3460 hc         1 K26       0.068700
     45 HBI         -2.2780    -2.0300     1.8950 h1         1 K26       0.082700
     46 HAY         -2.4750    -1.4880    -1.0370 hn         1 K26       0.300500
     47 HA          -0.6460    -3.2160    -2.0410 h1         1 K26       0.078700
     48 H           -1.1980    -5.7400    -0.6130 hn         1 K26       0.336500
     49 HB1C        -3.3590    -4.5870    -2.0950 hc         1 K26       0.083200
     50 HB2C        -3.0740    -2.9110    -2.5840 hc         1 K26       0.083200
     51 HBJ         -0.2700    -7.7520    -1.7050 h1         1 K26       0.058700
     52 HBG          2.4510    -6.4220    -1.4340 hc         1 K26       0.097700
     53 HAX          0.6350    -8.4780    -3.7280 hn         1 K26       0.302500
     54 HAC1         1.0840    -5.4390     0.2180 hc         1 K26       0.047033
     55 HAC2         1.8190    -6.8060     1.0660 hc         1 K26       0.047033
     56 HAC3         0.1590    -6.9260     0.4670 hc         1 K26       0.047033
     57 HAT1         2.4990    -8.8990    -1.8100 hc         1 K26       0.030700
     58 HAT2         1.4500    -9.0990    -0.3990 hc         1 K26       0.030700
     59 HAA1         3.9480    -7.4740    -0.0780 hc         1 K26       0.030033
     60 HAA2         3.1170    -8.5050     1.0960 hc         1 K26       0.030033
     61 HAA3         4.1070    -9.2330    -0.1770 hc         1 K26       0.030033
     62 HAB1         3.4350    -8.0800    -5.1450 hc         1 K26       0.050033
     63 HAB2         1.7750    -8.1890    -5.7480 hc         1 K26       0.050033
     64 HAB3         2.7100    -6.7070    -5.9930 hc         1 K26       0.050033
     65 HD1         -2.5130    -6.4360    -3.4190 ha         1 K26       0.132000
     66 HD2         -1.8310    -2.3890    -4.5980 ha         1 K26       0.132000
     67 HE1         -1.8230    -7.2090    -5.6550 ha         1 K26       0.117000
     68 HH          -1.7940    -5.6180    -8.2050 ho         1 K26       0.398000
     69 HE2         -1.1370    -3.1530    -6.8360 ha         1 K26       0.117000
@<TRIPOS>BOND
     1     1     2 ar
     2     1     7 ar
     3     2     3 ar
     4     3     4 1
     5     3     5 ar
     6     5     6 ar
     7     6     7 ar
     8     7     8 1
     9     8     9 1
    10     9    10 1
    11     9    14 1
    12    10    11 1
    13    10    12 1
    14    10    13 1
    15    14    15 1
    16    15    16 2
    17    15    17 1
    18    17    18 1
    19    17    30 1
    20    18    19 1
    21    19    20 2
    22    19    21 1
    23    21    22 1
    24    21    26 1
    25    22    23 1
    26    22    24 1
    27    24    25 1
    28    26    27 1
    29    27    28 1
    30    27    29 2
    31    30    31 1
    32    31    32 ar
    33    31    37 ar
    34    32    33 ar
    35    33    34 ar
    36    34    35 1
    37    34    36 ar
    38    36    37 ar
    39     1    38 1
    40     2    39 1
    41     4    40 1
    42     5    41 1
    43     6    42 1
    44     8    43 1
    45     8    44 1
    46     9    45 1
    47    14    46 1
    48    17    47 1
    49    18    48 1
    50    30    49 1
    51    30    50 1
    52    21    51 1
    53    22    52 1
    54    26    53 1
    55    23    54 1
    56    23    55 1
    57    23    56 1
    58    24    57 1
    59    24    58 1
    60    25    59 1
    61    25    60 1
    62    25    61 1
    63    28    62 1
    64    28    63 1
    65    28    64 1
    66    32    65 1
    67    37    66 1
    68    33    67 1
    69    35    68 1
    70    36    69 1
@<TRIPOS>SUBSTRUCTURE
     1 K26         1 TEMP              0 ****  ****    0 ROOT
