@<TRIPOS>MOLECULE
K26
   69    70     1     0     0
SMALL
bcc


@<TRIPOS>ATOM
      1 CAR          0.0000     0.0000     0.0000 ca         1 K26      -0.095500
      2 CAN          1.3810     0.0000     0.0000 ca         1 K26      -0.144000
      3 CBD          2.0740     0.0000     1.2020 ca         1 K26       0.056100
      4 OAI          3.4330     0.0000     1.2040 oh         1 K26      -0.507100
      5 CAO          1.3770     0.0000     2.4020 ca         1 K26      -0.144000
      6 CAS         -0.0040     0.0000     2.3970 ca         1 K26      -0.095500
      7 CBF         -0.6920    -0.0010     1.1970 ca         1 K26      -0.054300
      8 CAV         -2.2000    -0.0000     1.1940 c3         1 K26       0.039900
      9 CBI         -2.7100    -1.4390     1.0970 c3         1 K26      -0.015500
     10 PBK         -4.5260    -1.4510     1.2470 p5         1 K26       0.417700
     11 OAJ         -5.0740    -2.9470     1.0140 o          1 K26      -0.726833
     12 OAK         -4.9470    -0.9490     2.7170 o          1 K26      -0.726833
     13 OAG         -5.1110    -0.5480     0.2300 o          1 K26      -0.726833
     14 NAY         -2.3220    -2.0080    -0.1960 ns         1 K26      -0.030900
     15 C           -1.8080    -3.2520    -0.2570 c          1 K26       0.518100
     16 O           -1.6660    -3.9010     0.7580 o          1 K26      -0.696100
     17 CA          -1.4090    -3.8380    -1.5870 c3         1 K26      -0.061300
     18 N           -0.8820    -5.1900    -1.3880 ns         1 K26      -0.150900
     19 CBB         -0.0230    -5.7180    -2.2830 c          1 K26       0.541100
     20 OAF          0.3120    -5.0730    -3.2540 o          1 K26      -0.641100
     21 CBJ          0.5180    -7.1090    -2.0770 c3         1 K26      -0.035300
     22 CBG          1.6630    -7.0660    -1.0620 c3         1 K26      -0.083700
     23 CAC          1.1430    -6.5190     0.2690 c3         1 K26      -0.018100
     24 CAT          2.2130    -8.4780    -0.8530 c3         1 K26      -0.028400
     25 CAA          3.4350    -8.4180     0.0640 c3         1 K26       0.002900
     26 NAX          1.0160    -7.6320    -3.3520 ns         1 K26      -0.181900
     27 CAZ          2.0060    -6.9900    -4.0040 c          1 K26       0.575100
     28 CAB          2.5170    -7.5290    -5.3150 c3         1 K26      -0.067100
     29 OAD          2.4840    -5.9790    -3.5350 o          1 K26      -0.606100
     30 CB          -2.6320    -3.8970    -2.5060 c3         1 K26       0.003900
     31 CG          -2.2100    -4.3670    -3.8740 ca         1 K26      -0.050300
     32 CD1         -2.2100    -5.7170    -4.1700 ca         1 K26      -0.072500
     33 CE1         -1.8230    -6.1510    -5.4240 ca         1 K26      -0.137500
     34 CZ          -1.4350    -5.2300    -6.3860 ca         1 K26       0.090100
     35 OH          -1.0560    -5.6530    -7.6200 oh         1 K26      -0.511100
     36 CE2         -1.4380    -3.8750    -6.0860 ca         1 K26      -0.137500
     37 CD2         -1.8300    -3.4470    -4.8320 ca         1 K26      -0.072500
     38 HAR         -0.5410     0.0480    -0.9370 ha         1 K26       0.110500
     39 HAN          1.9230     0.0360    -0.9370 ha         1 K26       0.091500
     40 HAI          3.7470     0.8840     1.2980 ho         1 K26       0.374000
     41 HAO          1.9150     0.0490     3.3410 ha         1 K26       0.091500
     42 HAS         -0.5490     0.0240     3.3330 ha         1 K26       0.110500
     43 HAV1        -2.5620     0.4500     2.1110 hc         1 K26       0.035200
     44 HAV2        -2.5590     0.5690     0.3460 hc         1 K26       0.035200
     45 HBI         -2.2780    -2.0300     1.8950 h1         1 K26       0.065700
     46 HAY         -2.4750    -1.4880    -1.0370 hn         1 K26       0.145500
     47 HA          -0.6460    -3.2160    -2.0410 h1         1 K26       0.052700
     48 H           -1.1980    -5.7400    -0.6130 hn         1 K26       0.202500
     49 HB1C        -3.3590    -4.5870    -2.0950 hc         1 K26       0.051200
     50 HB2C        -3.0740    -2.9110    -2.5840 hc         1 K26       0.051200
     51 HBJ         -0.2700    -7.7520    -1.7050 h1         1 K26       0.031700
     52 HBG          2.4510    -6.4220    -1.4340 hc         1 K26       0.081700
     53 HAX          0.6350    -8.4780    -3.7280 hn         1 K26       0.157500
     54 HAC1         1.0840    -5.4390     0.2180 hc         1 K26       0.019367
     55 HAC2         1.8190    -6.8060     1.0660 hc         1 K26       0.019367
     56 HAC3         0.1590    -6.9260     0.4670 hc         1 K26       0.019367
     57 HAT1         2.4990    -8.8990    -1.8100 hc         1 K26       0.004200
     58 HAT2         1.4500    -9.0990    -0.3990 hc         1 K26       0.004200
     59 HAA1         3.9480    -7.4740    -0.0780 hc         1 K26       0.000367
     60 HAA2         3.1170    -8.5050     1.0960 hc         1 K26       0.000367
     61 HAA3         4.1070    -9.2330    -0.1770 hc         1 K26       0.000367
     62 HAB1         3.4350    -8.0800    -5.1450 hc         1 K26       0.013033
     63 HAB2         1.7750    -8.1890    -5.7480 hc         1 K26       0.013033
     64 HAB3         2.7100    -6.7070    -5.9930 hc         1 K26       0.013033
     65 HD1         -2.5130    -6.4360    -3.4190 ha         1 K26       0.105000
     66 HD2         -1.8310    -2.3890    -4.5980 ha         1 K26       0.105000
     67 HE1         -1.8230    -7.2090    -5.6550 ha         1 K26       0.094000
     68 HH          -1.7940    -5.6180    -8.2050 ho         1 K26       0.383000
     69 HE2         -1.1370    -3.1530    -6.8360 ha         1 K26       0.094000
@<TRIPOS>BOND
     1     1     2 ar  
     2     1     7 ar  
     3     1    38 1   
     4     2     3 ar  
     5     2    39 1   
     6     3     4 1   
     7     3     5 ar  
     8     4    40 1   
     9     5     6 ar  
    10     5    41 1   
    11     6     7 ar  
    12     6    42 1   
    13     7     8 1   
    14     8     9 1   
    15     8    43 1   
    16     8    44 1   
    17     9    10 1   
    18     9    14 1   
    19     9    45 1   
    20    10    11 1   
    21    10    12 1   
    22    10    13 1   
    23    14    15 1   
    24    14    46 1   
    25    15    16 2   
    26    15    17 1   
    27    17    18 1   
    28    17    30 1   
    29    17    47 1   
    30    18    19 1   
    31    18    48 1   
    32    19    20 2   
    33    19    21 1   
    34    21    22 1   
    35    21    26 1   
    36    21    51 1   
    37    22    23 1   
    38    22    24 1   
    39    22    52 1   
    40    23    54 1   
    41    23    55 1   
    42    23    56 1   
    43    24    25 1   
    44    24    57 1   
    45    24    58 1   
    46    25    59 1   
    47    25    60 1   
    48    25    61 1   
    49    26    27 1   
    50    26    53 1   
    51    27    28 1   
    52    27    29 2   
    53    28    62 1   
    54    28    63 1   
    55    28    64 1   
    56    30    31 1   
    57    30    49 1   
    58    30    50 1   
    59    31    32 ar  
    60    31    37 ar  
    61    32    33 ar  
    62    32    65 1   
    63    33    34 ar  
    64    33    67 1   
    65    34    35 1   
    66    34    36 ar  
    67    35    68 1   
    68    36    37 ar  
    69    36    69 1   
    70    37    66 1   
@<TRIPOS>SUBSTRUCTURE
     1 K26         1 TEMP              0 ****  ****    0 ROOT
