@<TRIPOS>MOLECULE
molecule
   40    41     1     0     0
SMALL
bcc


@<TRIPOS>ATOM
      1 C1           0.0000     0.0000     0.0000 c3         1 K27       0.006300
      2 C5A          4.2030     0.0000     0.0000 ca         1 K27       0.036100
      3 O10          7.7430     0.0000    -1.1200 oh         1 K27      -0.314500
      4 N9           6.3260    -0.0000    -1.1200 n2         1 K27      -0.355200
      5 C8           5.6810    -0.0000    -0.0010 ce         1 K27       0.359800
      6 C4           3.4840     0.0000     1.2010 ca         1 K27      -0.111000
      7 C3           2.1040     0.0010     1.1540 ca         1 K27      -0.051300
      8 N2           1.4660     0.0000    -0.0000 na         1 K27       0.042900
      9 C7           2.1040    -0.0000    -1.1540 ca         1 K27      -0.051300
     10 C6           3.4830     0.0060    -1.2010 ca         1 K27      -0.111000
     11 C2          -0.5090     1.4430     0.0000 c3         1 K27      -0.134400
     12 C5          -2.0400     1.4430    -0.0000 c3         1 K27      -0.016700
     13 N8          -2.5280     2.8230     0.0010 na         1 K27       0.097900
     14 C9          -2.7420     3.4260    -1.1530 ca         1 K27      -0.013300
     15 C10         -3.2020     4.7280    -1.1990 ca         1 K27      -0.080500
     16 C11         -3.4420     5.4050     0.0010 ca         1 K27      -0.090600
     17 C12         -3.2020     4.7270     1.2000 ca         1 K27      -0.080500
     18 C13         -2.7460     3.4240     1.1540 ca         1 K27      -0.013300
     19 C14         -3.9350     6.8010     0.0010 c          1 K27       0.494700
     20 N15         -4.1600     7.4370     1.1670 nz         1 K27      -0.680400
     21 O3          -4.1370     7.3740    -1.0520 o          1 K27      -0.314100
     22 H11C        -0.3610    -0.5110    -0.8840 h1         1 K27       0.110700
     23 H12C        -0.3610    -0.5110     0.8850 h1         1 K27       0.110700
     24 H21C        -0.1480     1.9530    -0.8840 hc         1 K27       0.080200
     25 H22C        -0.1480     1.9530     0.8850 hc         1 K27       0.080200
     26 H8           6.2230     0.0000     0.9370 h4         1 K27       0.051800
     27 H4           4.0020     0.0000     2.1520 ha         1 K27       0.218500
     28 H6           4.0010     0.0050    -2.1520 ha         1 K27       0.218500
     29 H10          8.0570    -0.0010    -2.0090 ho         1 K27       0.466000
     30 H3           1.5380     0.0010     2.0780 h4         1 K27       0.201500
     31 H7           1.5380     0.0040    -2.0780 h4         1 K27       0.201500
     32 H51C        -2.4010     0.9320     0.8840 h1         1 K27       0.125200
     33 H52C        -2.4010     0.9330    -0.8850 h1         1 K27       0.125200
     34 H9          -2.5530     2.8930    -2.0770 h4         1 K27       0.235000
     35 H13         -2.5580     2.8910     2.0780 h4         1 K27       0.235000
     36 HA          -3.3750     5.2160    -2.1500 ha         1 K27       0.212000
     37 H12         -3.3770     5.2140     2.1520 ha         1 K27       0.212000
     38 H151        -3.3100     7.4810     1.6920 hn         1 K27       0.499133
     39 H152        -4.8510     6.9370     1.6920 hn         1 K27       0.499133
     40 H153        -4.4880     8.3650     0.9840 hn         1 K27       0.499133
@<TRIPOS>BOND
     1     1     8 1
     2     1    11 1
     3     2     5 1
     4     2     6 ar
     5     2    10 ar
     6     3     4 1
     7     4     5 2
     8     6     7 ar
     9     7     8 1
    10     8     9 2
    11     9    10 ar
    12    11    12 1
    13    12    13 1
    14    13    14 1
    15    13    18 2
    16    14    15 ar
    17    15    16 ar
    18    16    17 ar
    19    16    19 1
    20    17    18 ar
    21    19    20 1
    22    19    21 2
    23     1    22 1
    24     1    23 1
    25    11    24 1
    26    11    25 1
    27     5    26 1
    28     6    27 1
    29    10    28 1
    30     3    29 1
    31     7    30 1
    32     9    31 1
    33    12    32 1
    34    12    33 1
    35    14    34 1
    36    18    35 1
    37    15    36 1
    38    17    37 1
    39    20    38 1
    40    20    39 1
    41    40    20 1
@<TRIPOS>SUBSTRUCTURE
     1 K27         1 TEMP              0 ****  ****    0 ROOT
