@<TRIPOS>MOLECULE
K27
   40    42     1     0     0
SMALL
bcc


@<TRIPOS>ATOM
      1 C1           0.0000     0.0000     0.0000 c3         1 K27      -0.158000
      2 C5A          4.2030     0.0000     0.0000 c3         1 K27      -0.025000
      3 O10          7.7430     0.0000    -1.1200 oh         1 K27      -0.135000
      4 N9           6.3260    -0.0000    -1.1200 n2         1 K27       0.184000
      5 C8           5.6810    -0.0000    -0.0010 c2         1 K27      -0.224000
      6 C4           3.4840     0.0000     1.2010 c2         1 K27      -0.040000
      7 C3           2.1040     0.0010     1.1540 c2         1 K27      -0.225500
      8 N2           1.4660     0.0000    -0.0000 n3         1 K27       0.539000
      9 C7           2.1040    -0.0000    -1.1540 c2         1 K27      -0.225500
     10 C6           3.4830     0.0060    -1.2010 c2         1 K27      -0.040000
     11 C2          -0.5090     1.4430     0.0000 c3         1 K27      -0.128000
     12 C5          -2.0400     1.4430    -0.0000 c3         1 K27      -0.189000
     13 N8          -2.5280     2.8230     0.0010 na         1 K27       0.636000
     14 C9          -2.7420     3.4260    -1.1530 c2         1 K27      -0.199500
     15 C10         -3.2020     4.7280    -1.1990 c2         1 K27       0.025500
     16 C11         -3.4420     5.4050     0.0010 c2         1 K27      -0.126000
     17 C12         -3.2020     4.7270     1.2000 c2         1 K27       0.025500
     18 C13         -2.7460     3.4240     1.1540 c2         1 K27      -0.199500
     19 C14         -3.9350     6.8010     0.0010 c2         1 K27       0.073000
     20 N15         -4.1600     7.4370     1.1670 nz         1 K27       0.826000
     21 O3          -4.1370     7.3740    -1.0520 o          1 K27      -0.083000
     22 H11C        -0.3610    -0.5110     0.8850 h1         1 K27       0.118000
     23 H12C        -0.3610    -0.5110    -0.8840 h1         1 K27       0.118000
     24 H21C        -0.1480     1.9530     0.8850 hc         1 K27       0.082000
     25 H22C        -0.1480     1.9530    -0.8840 hc         1 K27       0.082000
     26 H8           5.0690    -0.8750    -0.1860 DU         1 K27       0.207000
     27 H4           4.0020     0.0000     2.1520 ha         1 K27       0.174500
     28 H6           4.0010     0.0050    -2.1520 ha         1 K27       0.174500
     29 H10          8.0570     0.1590    -1.9950 ho         1 K27       0.243000
     30 H3           1.5380     0.0010     2.0780 h4         1 K27       0.167500
     31 H7           1.5380     0.0040    -2.0780 h4         1 K27       0.167500
     32 H51C        -2.4010     0.9320     0.8840 h1         1 K27       0.132000
     33 H52C        -2.4010     0.9330    -0.8850 h1         1 K27       0.132000
     34 H9          -2.5530     2.8930    -2.0770 h4         1 K27       0.195500
     35 H13         -2.5580     2.8910     2.0780 h4         1 K27       0.195500
     36 HA          -3.3750     5.2160    -2.1500 ha         1 K27       0.163500
     37 H12         -3.3770     5.2140     2.1520 ha         1 K27       0.163500
     38 H151        -3.3100     7.4810     1.6920 hn         1 K27       0.057667
     39 H152        -4.8510     6.9370     1.6920 hn         1 K27       0.057667
     40 H153        -4.4880     8.3650     0.9840 hn         1 K27       0.057667
@<TRIPOS>BOND
     1     1     8 1   
     2     1    11 1   
     3     1    22 1   
     4     1    23 1   
     5     2     5 1   
     6     2     6 1   
     7     2    10 1   
     8     2    26 1   
     9     3     4 1   
    10     3    29 1   
    11     4     5 1   
    12     5    26 1   
    13     6     7 1   
    14     6    27 1   
    15     7     8 1   
    16     7    30 1   
    17     8     9 1   
    18     9    10 1   
    19     9    31 1   
    20    10    28 1   
    21    11    12 1   
    22    11    24 1   
    23    11    25 1   
    24    12    13 1   
    25    12    32 1   
    26    12    33 1   
    27    13    14 1   
    28    13    18 1   
    29    14    15 1   
    30    14    34 1   
    31    15    16 1   
    32    15    36 1   
    33    16    17 1   
    34    16    19 1   
    35    17    18 1   
    36    17    37 1   
    37    18    35 1   
    38    19    20 1   
    39    19    21 1   
    40    20    38 1   
    41    20    39 1   
    42    20    40 1   
@<TRIPOS>SUBSTRUCTURE
     1 K27         1 TEMP              0 ****  ****    0 ROOT
