@<TRIPOS>MOLECULE
molecule
   44    48     1     0     0
SMALL
bcc


@<TRIPOS>ATOM
      1 O01          0.0000     0.0000     0.0000 o          1 K29      -0.811800
      2 C02          1.3420     0.0000     0.0000 c          1 K29       0.890600
      3 O03          1.9460     0.0000     1.0470 o          1 K29      -0.811800
      4 C04          2.0960     0.0000    -1.3050 c3         1 K29      -0.031300
      5 C05          1.7450    -1.2690    -2.0760 c3         1 K29       0.031700
      6 S06          3.3410    -2.1050    -2.3090 ss         1 K29      -0.304700
      7 C07          4.3190    -0.8900    -1.4730 cc         1 K29       0.227200
      8 C08          5.6870    -0.8770    -1.2580 cc         1 K29      -0.194200
      9 C09          6.5360    -2.0110    -1.7720 cx         1 K29      -0.062500
     10 C10          6.0170    -3.4350    -1.5600 cx         1 K29      -0.144400
     11 C11          7.2010    -2.9220    -0.7380 cx         1 K29      -0.144400
     12 C12          6.2820     0.1750    -0.5720 cc         1 K29       0.016800
     13 C13          7.7700     0.1990    -0.3350 c3         1 K29       0.005100
     14 C14          8.4600     0.8080    -1.5280 ca         1 K29      -0.186600
     15 C15          8.5780     2.1930    -1.6330 ca         1 K29       0.445200
     16 N16          9.1710     2.7600    -2.6560 nb         1 K29      -0.686000
     17 C17          9.6910     2.0300    -3.6480 ca         1 K29       0.412600
     18 C18         10.3210     2.6430    -4.7450 ca         1 K29      -0.162300
     19 C19         10.8370     1.8740    -5.7440 ca         1 K29      -0.131000
     20 C20         10.7510     0.4840    -5.6990 ca         1 K29      -0.136000
     21 C21         10.1480    -0.1450    -4.6520 ca         1 K29      -0.108000
     22 C22          9.6050     0.6160    -3.6050 ca         1 K29      -0.153300
     23 C23          8.9740     0.0040    -2.5050 ca         1 K29      -0.078000
     24 C24          5.4770     1.1990    -0.1150 cd         1 K29      -0.282200
     25 C25          4.1070     1.1530    -0.3470 c          1 K29       0.706700
     26 O26          3.4040     2.0640     0.0610 o          1 K29      -0.625500
     27 N27          3.5260     0.1160    -1.0230 n          1 K29      -0.276000
     28 H041         1.7870     0.8580    -1.8910 h1         1 K29       0.083700
     29 H052         1.3240    -1.0080    -3.0400 h1         1 K29       0.090700
     30 H051         1.0890    -1.8920    -1.4790 h1         1 K29       0.090700
     31 H091         7.1060    -1.8680    -2.6820 hc         1 K29       0.072700
     32 H102         6.2630    -4.1430    -2.3420 hc         1 K29       0.074450
     33 H101         5.0770    -3.5150    -1.0270 hc         1 K29       0.074450
     34 H112         6.9840    -2.6890     0.2980 hc         1 K29       0.074450
     35 H111         8.1700    -3.3170    -1.0170 hc         1 K29       0.074450
     36 H131         8.1280    -0.8120    -0.1880 hc         1 K29       0.059200
     37 H132         7.9850     0.7900     0.5470 hc         1 K29       0.059200
     38 H151         8.1710     2.8180    -0.8480 h4         1 K29       0.030100
     39 H181        10.3970     3.7220    -4.7960 ha         1 K29       0.143000
     40 H191        11.3220     2.3500    -6.5870 ha         1 K29       0.124000
     41 H201        11.1700    -0.1040    -6.5070 ha         1 K29       0.123000
     42 H211        10.0870    -1.2260    -4.6290 ha         1 K29       0.130000
     43 H231         9.1210    -1.0520    -2.3140 ha         1 K29       0.142000
     44 H241         5.9110     2.0330     0.4230 ha         1 K29       0.148000
@<TRIPOS>BOND
     1    19    20 ar
     2    19    18 ar
     3    20    21 ar
     4    18    17 ar
     5    21    22 ar
     6    17    22 ar
     7    17    16 ar
     8    22    23 ar
     9    16    15 ar
    10    23    14 ar
    11    15    14 ar
    12    14    13 1
    13    13    12 1
    14    12    24 2
    15    12     8 1
    16     9    11 1
    17     9     8 1
    18     9    10 1
    19    11    10 1
    20    24    25 1
    21     8     7 2
    22    25    26 2
    23    25    27 1
    24     7    27 1
    25     7     6 1
    26    27     4 1
    27     3     2 1
    28     6     5 1
    29     2     4 1
    30     2     1 1
    31     4     5 1
    32     4    28 1
    33     5    29 1
    34     5    30 1
    35     9    31 1
    36    10    32 1
    37    10    33 1
    38    11    34 1
    39    11    35 1
    40    13    36 1
    41    13    37 1
    42    15    38 1
    43    18    39 1
    44    19    40 1
    45    20    41 1
    46    21    42 1
    47    23    43 1
    48    24    44 1
@<TRIPOS>SUBSTRUCTURE
     1 K29         1 TEMP              0 ****  ****    0 ROOT
