@<TRIPOS>MOLECULE
K29
   44    48     1     0     0
SMALL
bcc


@<TRIPOS>ATOM
      1 O01          0.0000     0.0000     0.0000 o          1 K29      -0.860300
      2 C02          1.3420     0.0000     0.0000 c          1 K29       0.975600
      3 O03          1.9460     0.0000     1.0470 o          1 K29      -0.860300
      4 C04          2.0960     0.0000    -1.3050 c3         1 K29      -0.150300
      5 C05          1.7450    -1.2690    -2.0760 c3         1 K29       0.126700
      6 S06          3.3410    -2.1050    -2.3090 ss         1 K29      -0.376700
      7 C07          4.3190    -0.8900    -1.4730 cc         1 K29       0.069200
      8 C08          5.6870    -0.8770    -1.2580 cd         1 K29      -0.171200
      9 C09          6.5360    -2.0110    -1.7720 cx         1 K29      -0.029500
     10 C10          6.0170    -3.4350    -1.5600 cx         1 K29      -0.096900
     11 C11          7.2010    -2.9220    -0.7380 cx         1 K29      -0.096900
     12 C12          6.2820     0.1750    -0.5720 cd         1 K29      -0.000200
     13 C13          7.7700     0.1990    -0.3350 c3         1 K29       0.073100
     14 C14          8.4600     0.8080    -1.5280 ca         1 K29      -0.184600
     15 C15          8.5780     2.1930    -1.6330 ca         1 K29       0.424200
     16 N16          9.1710     2.7600    -2.6560 nb         1 K29      -0.577000
     17 C17          9.6910     2.0300    -3.6480 ca         1 K29       0.367600
     18 C18         10.3210     2.6430    -4.7450 ca         1 K29      -0.137300
     19 C19         10.8370     1.8740    -5.7440 ca         1 K29      -0.107000
     20 C20         10.7510     0.4840    -5.6990 ca         1 K29      -0.109000
     21 C21         10.1480    -0.1450    -4.6520 ca         1 K29      -0.080000
     22 C22          9.6050     0.6160    -3.6050 ca         1 K29      -0.145300
     23 C23          8.9740     0.0040    -2.5050 ca         1 K29      -0.063000
     24 C24          5.4770     1.1990    -0.1150 cc         1 K29      -0.259200
     25 C25          4.1070     1.1530    -0.3470 c          1 K29       0.605700
     26 O26          3.4040     2.0640     0.0610 o          1 K29      -0.670500
     27 N27          3.5260     0.1160    -1.0230 n          1 K29       0.184000
     28 H041         1.7870     0.8580    -1.8910 h1         1 K29       0.061700
     29 H052         1.3240    -1.0080    -3.0400 h1         1 K29       0.064200
     30 H051         1.0890    -1.8920    -1.4790 h1         1 K29       0.064200
     31 H091         7.1060    -1.8680    -2.6820 hc         1 K29       0.053700
     32 H102         6.2630    -4.1430    -2.3420 hc         1 K29       0.050200
     33 H101         5.0770    -3.5150    -1.0270 hc         1 K29       0.050200
     34 H112         6.9840    -2.6890     0.2980 hc         1 K29       0.050200
     35 H111         8.1700    -3.3170    -1.0170 hc         1 K29       0.050200
     36 H131         8.1280    -0.8120    -0.1880 hc         1 K29       0.029700
     37 H132         7.9850     0.7900     0.5470 hc         1 K29       0.029700
     38 H151         8.1710     2.8180    -0.8480 h4         1 K29      -0.012900
     39 H181        10.3970     3.7220    -4.7960 ha         1 K29       0.113000
     40 H191        11.3220     2.3500    -6.5870 ha         1 K29       0.097000
     41 H201        11.1700    -0.1040    -6.5070 ha         1 K29       0.097000
     42 H211        10.0870    -1.2260    -4.6290 ha         1 K29       0.104000
     43 H231         9.1210    -1.0520    -2.3140 ha         1 K29       0.120000
     44 H241         5.9110     2.0330     0.4230 ha         1 K29       0.127000
@<TRIPOS>BOND
     1     1     2 1   
     2     2     3 1   
     3     2     4 1   
     4     4     5 1   
     5     4    27 1   
     6     4    28 1   
     7     5     6 1   
     8     5    29 1   
     9     5    30 1   
    10     6     7 1   
    11     7     8 2   
    12     7    27 1   
    13     8     9 1   
    14     8    12 1   
    15     9    10 1   
    16     9    11 1   
    17     9    31 1   
    18    10    11 1   
    19    10    32 1   
    20    10    33 1   
    21    11    34 1   
    22    11    35 1   
    23    12    13 1   
    24    12    24 2   
    25    13    14 1   
    26    13    36 1   
    27    13    37 1   
    28    14    15 ar  
    29    14    23 ar  
    30    15    16 ar  
    31    15    38 1   
    32    16    17 ar  
    33    17    18 ar  
    34    17    22 ar  
    35    18    19 ar  
    36    18    39 1   
    37    19    20 ar  
    38    19    40 1   
    39    20    21 ar  
    40    20    41 1   
    41    21    22 ar  
    42    21    42 1   
    43    22    23 ar  
    44    23    43 1   
    45    24    25 1   
    46    24    44 1   
    47    25    26 2   
    48    25    27 1   
@<TRIPOS>SUBSTRUCTURE
     1 K29         1 TEMP              0 ****  ****    0 ROOT
