@<TRIPOS>MOLECULE
K2A
   80    83     1     0     0
SMALL
bcc


@<TRIPOS>ATOM
      1 C1           0.0000     0.0000     0.0000 c3         1 K2A       0.276700
      2 O1           1.4300     0.0000     0.0000 oh         1 K2A      -0.582800
      3 C2          -0.5020     0.0000     1.4210 ca         1 K2A      -0.054300
      4 C3          -0.7330     1.1960     2.0730 ca         1 K2A      -0.110500
      5 C4          -1.1930     1.1960     3.3760 ca         1 K2A      -0.004500
      6 C5          -1.4240    -0.0010     4.0280 ca         1 K2A      -0.160500
      7 C6          -1.1930    -1.1980     3.3750 ca         1 K2A      -0.004500
      8 C7          -0.7370    -1.1980     2.0700 ca         1 K2A      -0.110500
      9 S8          -2.0090    -0.0000     5.6890 sy         1 K2A       1.046200
     10 O9          -1.6290    -1.2510     6.2490 o          1 K2A      -0.584300
     11 O10         -1.6290     1.2490     6.2500 o          1 K2A      -0.584300
     12 N11         -3.6640    -0.0000     5.6250 n3         1 K2A      -0.518500
     13 C12         -4.3960    -1.2690     5.5980 c3         1 K2A       0.231800
     14 C13         -4.7800    -1.6690     7.0240 c3         1 K2A      -0.079700
     15 C14         -5.7700    -0.6500     7.5900 c3         1 K2A      -0.013100
     16 C15         -5.4260    -3.0540     7.0080 c3         1 K2A      -0.020400
     17 C16         -4.3950     1.2690     5.5980 c3         1 K2A       0.189800
     18 C17         -4.6840     1.6600     4.1470 c3         1 K2A       0.144100
     19 C18         -5.6960    -3.5080     8.4450 c3         1 K2A       0.002900
     20 O18         -5.5670     0.7010     3.5630 oh         1 K2A      -0.580800
     21 C19         -5.3370     3.0430     4.1110 c3         1 K2A       0.011700
     22 N20         -5.5040     3.4680     2.7200 ns         1 K2A      -0.168900
     23 C21         -5.5710     4.7810     2.4190 c          1 K2A       0.674100
     24 O22         -5.4930     5.6110     3.3030 o          1 K2A      -0.642000
     25 O23         -5.7250     5.1710     1.1400 os         1 K2A      -0.413900
     26 C24         -5.7880     6.6000     0.8900 c3         1 K2A       0.170100
     27 C25         -4.3830     7.1570     0.6010 c3         1 K2A       0.190400
     28 O26         -4.3800     7.6320    -0.7520 os         1 K2A      -0.417600
     29 C27         -5.7340     7.9730    -1.1060 c3         1 K2A       0.398900
     30 O28         -5.9180     7.7350    -2.5090 os         1 K2A      -0.397600
     31 C29         -6.3240     6.3830    -2.7370 c3         1 K2A       0.216400
     32 C30         -6.4340     5.6900    -1.3620 c3         1 K2A      -0.051400
     33 C31         -6.5950     6.8860    -0.3930 c3         1 K2A      -0.124700
     34 C32         -6.7050     2.9790     4.7930 c3         1 K2A       0.010900
     35 C33         -8.0870     4.8340     3.8370 ca         1 K2A      -0.092000
     36 C34         -8.6270     6.1040     3.9050 ca         1 K2A      -0.092500
     37 C35         -8.3740     6.9050     5.0040 ca         1 K2A      -0.099000
     38 C36         -7.5820     6.4350     6.0340 ca         1 K2A      -0.092500
     39 C37         -7.0420     5.1650     5.9660 ca         1 K2A      -0.092000
     40 C38         -7.2930     4.3640     4.8680 ca         1 K2A      -0.079300
     41 H1          -0.3610     0.8850    -0.5110 h1         1 K2A      -0.010800
     42 H1A         -0.3610    -0.8850    -0.5110 h1         1 K2A      -0.010800
     43 HO1          1.7440    -0.0750    -0.8860 ho         1 K2A       0.393000
     44 H3          -0.5530     2.1340     1.5620 ha         1 K2A       0.113500
     45 H4          -1.3740     2.1350     3.8870 ha         1 K2A       0.124000
     46 H6          -1.3760    -2.1370     3.8850 ha         1 K2A       0.124000
     47 H7          -0.5570    -2.1350     1.5590 ha         1 K2A       0.113500
     48 H12         -5.2940    -1.1550     5.0010 h1         1 K2A       0.027700
     49 H12A        -3.7700    -2.0380     5.1640 h1         1 K2A       0.027700
     50 H13         -3.8920    -1.6920     7.6440 hc         1 K2A       0.051700
     51 H14         -6.4150    -0.2930     6.7950 hc         1 K2A       0.009033
     52 H14A        -5.2260     0.1840     8.0160 hc         1 K2A       0.009033
     53 H14B        -6.3720    -1.1190     8.3590 hc         1 K2A       0.009033
     54 H15         -4.7590    -3.7590     6.5260 hc         1 K2A       0.012700
     55 H15A        -6.3610    -3.0110     6.4620 hc         1 K2A       0.012700
     56 H16         -5.3300     1.1590     6.1350 h1         1 K2A       0.056200
     57 H16A        -3.7970     2.0400     6.0680 h1         1 K2A       0.056200
     58 H17         -3.7560     1.6840     3.5880 h1         1 K2A       0.010700
     59 H18         -6.6920    -3.1990     8.7400 hc         1 K2A       0.003033
     60 H18A        -5.6210    -4.5870     8.5030 hc         1 K2A       0.003033
     61 H18B        -4.9670    -3.0590     9.1090 hc         1 K2A       0.003033
     62 HO18        -5.2430     0.4510     2.7140 ho         1 K2A       0.389000
     63 H19         -4.7060     3.7540     4.6320 h1         1 K2A       0.070700
     64 HN20        -5.5320     2.7850     1.9880 hn         1 K2A       0.170500
     65 H24         -6.2300     7.1170     1.7340 h1         1 K2A       0.055700
     66 H25         -3.6460     6.3720     0.7160 h1         1 K2A       0.021200
     67 H25A        -4.1670     7.9750     1.2770 h1         1 K2A       0.021200
     68 H27         -6.0040     8.9800    -0.8110 h2         1 K2A       0.040700
     69 H29         -5.5840     5.8760    -3.3440 h1         1 K2A       0.005700
     70 H29A        -7.2870     6.3680    -3.2320 h1         1 K2A       0.005700
     71 H30         -7.3060     5.0480    -1.3260 hc         1 K2A       0.033700
     72 H30A        -5.5300     5.1360    -1.1400 hc         1 K2A       0.033700
     73 H31         -7.6220     7.1840    -0.2190 hc         1 K2A       0.058700
     74 H32         -6.5910     2.5810     5.7940 hc         1 K2A       0.033200
     75 H32A        -7.3640     2.3370     4.2210 hc         1 K2A       0.033200
     76 H34         -9.2480     6.4720     3.0980 ha         1 K2A       0.098000
     77 H35         -8.7980     7.9010     5.0570 ha         1 K2A       0.098000
     78 H36         -7.3840     7.0620     6.8950 ha         1 K2A       0.098000
     79 H37         -6.4210     4.7960     6.7730 ha         1 K2A       0.100000
     80 H33         -8.2850     4.2070     2.9760 ha         1 K2A       0.100000
@<TRIPOS>BOND
     1     1     2 1   
     2     1     3 1   
     3     1    41 1   
     4     1    42 1   
     5     2    43 1   
     6     3     4 ar  
     7     3     8 ar  
     8     4     5 ar  
     9     4    44 1   
    10     5     6 ar  
    11     5    45 1   
    12     6     7 ar  
    13     6     9 1   
    14     7     8 ar  
    15     7    46 1   
    16     8    47 1   
    17     9    10 2   
    18     9    11 2   
    19     9    12 1   
    20    12    13 1   
    21    12    17 1   
    22    13    14 1   
    23    13    48 1   
    24    13    49 1   
    25    14    15 1   
    26    14    16 1   
    27    14    50 1   
    28    15    51 1   
    29    15    52 1   
    30    15    53 1   
    31    16    19 1   
    32    16    54 1   
    33    16    55 1   
    34    17    18 1   
    35    17    56 1   
    36    17    57 1   
    37    18    20 1   
    38    18    21 1   
    39    18    58 1   
    40    19    59 1   
    41    19    60 1   
    42    19    61 1   
    43    20    62 1   
    44    21    22 1   
    45    21    34 1   
    46    21    63 1   
    47    22    23 1   
    48    22    64 1   
    49    23    24 2   
    50    23    25 1   
    51    25    26 1   
    52    26    27 1   
    53    26    33 1   
    54    26    65 1   
    55    27    28 1   
    56    27    66 1   
    57    27    67 1   
    58    28    29 1   
    59    29    30 1   
    60    29    33 1   
    61    29    68 1   
    62    30    31 1   
    63    31    32 1   
    64    31    69 1   
    65    31    70 1   
    66    32    33 1   
    67    32    71 1   
    68    32    72 1   
    69    33    73 1   
    70    34    40 1   
    71    34    74 1   
    72    34    75 1   
    73    35    36 ar  
    74    35    40 ar  
    75    35    80 1   
    76    36    37 ar  
    77    36    76 1   
    78    37    38 ar  
    79    37    77 1   
    80    38    39 ar  
    81    38    78 1   
    82    39    40 ar  
    83    39    79 1   
@<TRIPOS>SUBSTRUCTURE
     1 K2A         1 TEMP              0 ****  ****    0 ROOT
