@<TRIPOS>MOLECULE
K2B
   72    75     1     0     0
SMALL
bcc


@<TRIPOS>ATOM
      1 C1          0.0620    0.2420    0.3240 c3        1 K2B     -0.069400
      2 C2          1.5390    0.5090    0.5010 c3        1 K2B     -0.182400
      3 C3          1.9460    0.4060    1.9440 c         1 K2B      0.570300
      4 C4          1.2640   -0.6380    2.7170 ce        1 K2B     -0.266200
      5 C5          0.2170   -1.3420    2.2530 c2        1 K2B     -0.026400
      6 C6         -0.3590   -2.4500    3.0690 c3        1 K2B     -0.054200
      7 C7         -1.8680   -2.3770    3.1510 c3        1 K2B     -0.072400
      8 C8         -2.4750   -2.3100    1.7600 c3        1 K2B     -0.050700
      9 C9         -1.9310   -1.0840    1.0120 c3        1 K2B     -0.047700
     10 C10        -0.3910   -1.1120    0.8900 c3        1 K2B     -0.015800
     11 C11        -2.6100   -0.9040   -0.3410 c3        1 K2B     -0.075400
     12 C12        -4.1290   -0.9110   -0.2710 c3        1 K2B     -0.065400
     13 C13        -4.6380   -2.1620    0.4280 c3        1 K2B     -0.045000
     14 C14        -3.9820   -2.1780    1.8340 c3        1 K2B     -0.064700
     15 C15        -4.7800   -3.2200    2.6030 c3        1 K2B     -0.074400
     16 C16        -6.1990   -3.0990    2.0420 c3        1 K2B     -0.078400
     17 C17        -6.1390   -2.1660    0.8130 c3        1 K2B     -0.053700
     18 C18        -4.3080   -3.4020   -0.3850 c3        1 K2B     -0.083100
     19 C19         0.0890   -2.2250   -0.0380 c3        1 K2B     -0.085100
     20 C20        -7.1300   -2.5810   -0.2690 c3        1 K2B     -0.055700
     21 C21        -7.0420   -1.6790   -1.4850 c3        1 K2B     -0.091100
     22 C22        -8.5550   -2.5500    0.2820 c3        1 K2B     -0.080400
     23 C23        -9.4890   -3.4460   -0.5060 c3        1 K2B     -0.079400
     24 C24       -10.8970   -3.3800    0.0460 c3        1 K2B     -0.076400
     25 C25       -11.8560   -4.2940   -0.7030 c3        1 K2B     -0.067700
     26 C27       -13.1050   -4.5280    0.1230 c3        1 K2B     -0.089600
     27 C26       -12.2270   -3.7190   -2.0540 c3        1 K2B     -0.089600
     28 O1          2.8180    1.1330    2.4340 o         1 K2B     -0.537100
     29 H11C       -0.5180    1.0620    0.8250 hc        1 K2B      0.050200
     30 H12C       -0.1800    0.2800   -0.7710 hc        1 K2B      0.050200
     31 H21C        2.1430   -0.2390   -0.0800 hc        1 K2B      0.071200
     32 H22C        1.7920    1.5280    0.1060 hc        1 K2B      0.071200
     33 H4          1.6780   -0.8210    3.7230 ha        1 K2B      0.147000
     34 H61C        0.0700   -2.4380    4.1060 hc        1 K2B      0.055200
     35 H62C       -0.0560   -3.4240    2.5920 hc        1 K2B      0.055200
     36 H71C       -2.2600   -3.2810    3.6860 hc        1 K2B      0.047700
     37 H72C       -2.1740   -1.4750    3.7440 hc        1 K2B      0.047700
     38 H8         -2.2010   -3.2490    1.2060 hc        1 K2B      0.056700
     39 H9         -2.1870   -0.1800    1.6390 hc        1 K2B      0.051700
     40 H14        -4.2000   -1.1780    2.3150 hc        1 K2B      0.047700
     41 H111       -2.2870    0.0770   -0.7820 hc        1 K2B      0.041700
     42 H112       -2.2740   -1.7120   -1.0420 hc        1 K2B      0.041700
     43 H191        1.2020   -2.3070    0.0050 hc        1 K2B      0.040367
     44 H192       -0.3490   -3.2070    0.2610 hc        1 K2B      0.040367
     45 H193       -0.2050   -2.0090   -1.0930 hc        1 K2B      0.040367
     46 H121       -4.4860   -0.0030    0.2830 hc        1 K2B      0.042700
     47 H122       -4.5380   -0.8520   -1.3120 hc        1 K2B      0.042700
     48 H17        -6.4090   -1.1230    1.1390 hc        1 K2B      0.047700
     49 H181       -4.7790   -3.3360   -1.3960 hc        1 K2B      0.035367
     50 H182       -4.6930   -4.3160    0.1290 hc        1 K2B      0.035367
     51 H183       -3.2070   -3.5170   -0.5280 hc        1 K2B      0.035367
     52 H151       -4.3680   -4.2450    2.4330 hc        1 K2B      0.042200
     53 H152       -4.7560   -3.0200    3.7010 hc        1 K2B      0.042200
     54 H161       -6.5860   -4.1060    1.7500 hc        1 K2B      0.042700
     55 H162       -6.8890   -2.6750    2.8120 hc        1 K2B      0.042700
     56 H20        -6.8960   -3.6370   -0.5840 hc        1 K2B      0.050700
     57 H211       -6.1380   -1.9210   -2.0950 hc        1 K2B      0.034367
     58 H212       -6.9850   -0.6070   -1.1760 hc        1 K2B      0.034367
     59 H213       -7.9400   -1.8100   -2.1360 hc        1 K2B      0.034367
     60 H221       -8.9370   -1.4960    0.2630 hc        1 K2B      0.041700
     61 H222       -8.5630   -2.8820    1.3540 hc        1 K2B      0.041700
     62 H231       -9.1180   -4.5040   -0.4640 hc        1 K2B      0.040200
     63 H232       -9.4920   -3.1400   -1.5850 hc        1 K2B      0.040200
     64 H241      -11.2730   -2.3240   -0.0030 hc        1 K2B      0.039700
     65 H242      -10.8800   -3.6750    1.1290 hc        1 K2B      0.039700
     66 H25       -11.3480   -5.2870   -0.8660 hc        1 K2B      0.045700
     67 H261      -11.3160   -3.5760   -2.6840 hc        1 K2B      0.033367
     68 H262      -12.9220   -4.4100   -2.5900 hc        1 K2B      0.033367
     69 H263      -12.7330   -2.7310   -1.9360 hc        1 K2B      0.033367
     70 H271      -12.8460   -5.0180    1.0920 hc        1 K2B      0.033367
     71 H272      -13.8170   -5.1880   -0.4290 hc        1 K2B      0.033367
     72 H273      -13.6170   -3.5600    0.3420 hc        1 K2B      0.033367
@<TRIPOS>BOND
     1    1    2 1   
     2    1   10 1   
     3    1   29 1   
     4    1   30 1   
     5    2    3 1   
     6    2   31 1   
     7    2   32 1   
     8    3    4 1   
     9    3   28 2   
    10    4    5 2   
    11    4   33 1   
    12    5    6 1   
    13    5   10 1   
    14    6    7 1   
    15    6   34 1   
    16    6   35 1   
    17    7    8 1   
    18    7   36 1   
    19    7   37 1   
    20    8    9 1   
    21    8   14 1   
    22    8   38 1   
    23    9   10 1   
    24    9   11 1   
    25    9   39 1   
    26   10   19 1   
    27   11   12 1   
    28   11   41 1   
    29   11   42 1   
    30   12   13 1   
    31   12   46 1   
    32   12   47 1   
    33   13   14 1   
    34   13   17 1   
    35   13   18 1   
    36   14   15 1   
    37   14   40 1   
    38   15   16 1   
    39   15   52 1   
    40   15   53 1   
    41   16   17 1   
    42   16   54 1   
    43   16   55 1   
    44   17   20 1   
    45   17   48 1   
    46   18   49 1   
    47   18   50 1   
    48   18   51 1   
    49   19   43 1   
    50   19   44 1   
    51   19   45 1   
    52   20   21 1   
    53   20   22 1   
    54   20   56 1   
    55   21   57 1   
    56   21   58 1   
    57   21   59 1   
    58   22   23 1   
    59   22   60 1   
    60   22   61 1   
    61   23   24 1   
    62   23   62 1   
    63   23   63 1   
    64   24   25 1   
    65   24   64 1   
    66   24   65 1   
    67   25   26 1   
    68   25   27 1   
    69   25   66 1   
    70   26   70 1   
    71   26   71 1   
    72   26   72 1   
    73   27   67 1   
    74   27   68 1   
    75   27   69 1   
@<TRIPOS>SUBSTRUCTURE
     1 K2B         1 TEMP              0 ****  ****    0 ROOT
