@<TRIPOS>MOLECULE
molecule
   72    75     1     0     0
SMALL
bcc


@<TRIPOS>ATOM
      1 C1           0.0000     0.0000     0.0000 c3         1 K2B      -0.064400
      2 C2           1.5280     0.0000     0.0000 c3         1 K2B      -0.179400
      3 C3           1.9820     0.0000     1.4470 c          1 K2B       0.570300
      4 C4           1.3680    -1.0050     2.3220 ce         1 K2B      -0.263200
      5 C5           0.1980    -1.5490     1.9930 c2         1 K2B      -0.040400
      6 C6          -0.3830    -2.5980     2.9260 c3         1 K2B      -0.050200
      7 C7          -1.8400    -2.2350     3.2200 c3         1 K2B      -0.074400
      8 C8          -2.6010    -2.0970     1.8990 c3         1 K2B      -0.065700
      9 C9          -2.0300    -0.9090     1.1100 c3         1 K2B      -0.051700
     10 C10         -0.5640    -1.1910     0.7550 c3         1 K2B      -0.026800
     11 C11         -2.8150    -0.6530    -0.1740 c3         1 K2B      -0.082400
     12 C12         -4.3170    -0.4840     0.1030 c3         1 K2B      -0.065400
     13 C13         -4.7860    -1.7430     0.8060 c3         1 K2B      -0.064000
     14 C14         -4.0640    -1.8010     2.1780 c3         1 K2B      -0.066700
     15 C15         -4.8430    -2.9120     2.8910 c3         1 K2B      -0.077400
     16 C16         -6.3160    -2.6110     2.5030 c3         1 K2B      -0.082400
     17 C17         -6.2630    -1.8030     1.1820 c3         1 K2B      -0.054700
     18 C18         -4.4130    -2.9700    -0.0280 c3         1 K2B      -0.093100
     19 C19         -0.5460    -2.4010    -0.1820 c3         1 K2B      -0.088100
     20 C20         -7.0590    -2.5200     0.0900 c3         1 K2B      -0.071700
     21 C21         -7.0440    -1.6800    -1.1890 c3         1 K2B      -0.094100
     22 C22         -8.5040    -2.7130     0.5560 c3         1 K2B      -0.081400
     23 C23         -9.2680    -3.5380    -0.4810 c3         1 K2B      -0.085400
     24 C24        -10.7130    -3.7310    -0.0150 c3         1 K2B      -0.077400
     25 C25        -11.4780    -4.5570    -1.0530 c3         1 K2B      -0.077700
     26 C27        -12.8840    -4.8550    -0.5300 c3         1 K2B      -0.087600
     27 C26        -11.5750    -3.7690    -2.3600 c3         1 K2B      -0.087600
     28 O1           2.8060     0.7890     1.8590 o          1 K2B      -0.525100
     29 H11C        -0.3510     0.9120     0.4680 hc         1 K2B       0.051700
     30 H12C        -0.3510    -0.0350    -1.0240 hc         1 K2B       0.051700
     31 H21C         1.8950     0.8880    -0.5000 hc         1 K2B       0.069200
     32 H22C         1.8950    -0.8880    -0.5000 hc         1 K2B       0.069200
     33 H4           1.8810    -1.3270     3.2200 ha         1 K2B       0.150000
     34 H61C        -0.3400    -3.5700     2.4510 hc         1 K2B       0.054200
     35 H62C         0.1810    -2.6130     3.8510 hc         1 K2B       0.054200
     36 H71C        -1.8760    -1.2950     3.7580 hc         1 K2B       0.048200
     37 H72C        -2.2930    -3.0180     3.8180 hc         1 K2B       0.048200
     38 H8          -2.5100    -3.0080     1.3190 hc         1 K2B       0.067700
     39 H9          -2.0760    -0.0230     1.7310 hc         1 K2B       0.056700
     40 H14         -4.1720    -0.8600     2.7040 hc         1 K2B       0.060700
     41 H111        -2.6730    -1.4900    -0.8460 hc         1 K2B       0.045200
     42 H112        -2.4390     0.2500    -0.6410 hc         1 K2B       0.045200
     43 H191        -0.9020    -2.1040    -1.1610 hc         1 K2B       0.040700
     44 H192         0.4670    -2.7770    -0.2650 hc         1 K2B       0.040700
     45 H193        -1.1880    -3.1760     0.2170 hc         1 K2B       0.040700
     46 H121        -4.8520    -0.3620    -0.8310 hc         1 K2B       0.046200
     47 H122        -4.4790     0.3760     0.7420 hc         1 K2B       0.046200
     48 H17         -6.6490    -0.8030     1.3400 hc         1 K2B       0.055700
     49 H181        -3.3380    -3.1060    -0.0110 hc         1 K2B       0.039033
     50 H182        -4.8950    -3.8480     0.3850 hc         1 K2B       0.039033
     51 H183        -4.7420    -2.8260    -1.0510 hc         1 K2B       0.039033
     52 H151        -4.5430    -3.8850     2.5220 hc         1 K2B       0.044700
     53 H152        -4.7100    -2.8430     3.9640 hc         1 K2B       0.044700
     54 H161        -6.8560    -3.5380     2.3490 hc         1 K2B       0.045200
     55 H162        -6.7910    -2.0220     3.2780 hc         1 K2B       0.045200
     56 H20         -6.6120    -3.4870    -0.1080 hc         1 K2B       0.057700
     57 H211        -6.2830    -2.0570    -1.8600 hc         1 K2B       0.035700
     58 H212        -8.0120    -1.7380    -1.6710 hc         1 K2B       0.035700
     59 H213        -6.8260    -0.6480    -0.9400 hc         1 K2B       0.035700
     60 H221        -8.5110    -3.2320     1.5060 hc         1 K2B       0.043200
     61 H222        -8.9790    -1.7460     0.6690 hc         1 K2B       0.043200
     62 H231        -9.2620    -3.0190    -1.4320 hc         1 K2B       0.043200
     63 H232        -8.7940    -4.5050    -0.5950 hc         1 K2B       0.043200
     64 H241       -10.7200    -4.2500     0.9360 hc         1 K2B       0.041700
     65 H242       -11.1880    -2.7640     0.0980 hc         1 K2B       0.041700
     66 H25        -10.9540    -5.4880    -1.2300 hc         1 K2B       0.048700
     67 H261       -11.6880    -2.7140    -2.1390 hc         1 K2B       0.033200
     68 H262       -10.6750    -3.9220    -2.9420 hc         1 K2B       0.033200
     69 H263       -12.4330    -4.1120    -2.9260 hc         1 K2B       0.033200
     70 H271       -13.4180    -3.9250    -0.3780 hc         1 K2B       0.033200
     71 H272       -13.4160    -5.4630    -1.2520 hc         1 K2B       0.033200
     72 H273       -12.8150    -5.3890     0.4100 hc         1 K2B       0.033200
@<TRIPOS>BOND
     1     1     2 1
     2     1    10 1
     3     2     3 1
     4     3     4 1
     5     3    28 2
     6     4     5 2
     7     5     6 1
     8     5    10 1
     9     6     7 1
    10     7     8 1
    11     8     9 1
    12     8    14 1
    13     9    10 1
    14     9    11 1
    15    10    19 1
    16    11    12 1
    17    12    13 1
    18    13    14 1
    19    13    17 1
    20    13    18 1
    21    14    15 1
    22    15    16 1
    23    16    17 1
    24    17    20 1
    25    20    21 1
    26    20    22 1
    27    22    23 1
    28    23    24 1
    29    24    25 1
    30    25    27 1
    31    25    26 1
    32     1    29 1
    33     1    30 1
    34     2    31 1
    35     2    32 1
    36     4    33 1
    37     6    34 1
    38     6    35 1
    39     7    36 1
    40     7    37 1
    41     8    38 1
    42     9    39 1
    43    14    40 1
    44    11    41 1
    45    11    42 1
    46    19    43 1
    47    19    44 1
    48    19    45 1
    49    12    46 1
    50    12    47 1
    51    17    48 1
    52    18    49 1
    53    18    50 1
    54    18    51 1
    55    15    52 1
    56    15    53 1
    57    16    54 1
    58    16    55 1
    59    20    56 1
    60    21    57 1
    61    21    58 1
    62    21    59 1
    63    22    60 1
    64    22    61 1
    65    23    62 1
    66    23    63 1
    67    24    64 1
    68    24    65 1
    69    25    66 1
    70    27    67 1
    71    27    68 1
    72    27    69 1
    73    26    70 1
    74    26    71 1
    75    26    72 1
@<TRIPOS>SUBSTRUCTURE
     1 K2B         1 TEMP              0 ****  ****    0 ROOT
