@<TRIPOS>MOLECULE
K2C
   37    42     1     0     0
SMALL
bcc


@<TRIPOS>ATOM
      1 C7           0.0000     0.0000     0.0000 c3         1 K2C       0.103300
      2 N6           1.4680     0.0000     0.0000 ns         1 K2C      -0.200900
      3 C22         -0.4200     0.0010     1.4490 ca         1 K2C      -0.062300
      4 C21         -1.6590     0.0010     2.0790 cp         1 K2C      -0.052000
      5 C18         -1.7450     0.0010     3.4800 ca         1 K2C      -0.162200
      6 N12         -3.0780     0.0000     3.8350 na         1 K2C       0.339700
      7 C19         -3.8770     0.0000     2.7070 ca         1 K2C      -0.185200
      8 C20         -3.0460     0.0000     1.5770 cp         1 K2C      -0.080000
      9 C8          -3.6020     0.0000     0.3000 ca         1 K2C      -0.042000
     10 C9          -4.9730    -0.0010     0.1510 ca         1 K2C      -0.133000
     11 C10         -5.7960    -0.0010     1.2660 ca         1 K2C      -0.072000
     12 C11         -5.2590     0.0000     2.5350 ca         1 K2C      -0.116000
     13 C5           1.8960     0.0000     1.2750 c          1 K2C       0.652100
     14 C23          0.7520     0.0000     2.2000 ca         1 K2C      -0.143600
     15 C16          0.6700     0.0010     3.6100 cp         1 K2C       0.017000
     16 C17         -0.5710     0.0010     4.2470 ca         1 K2C      -0.206200
     17 N13         -0.3620     0.0010     5.6170 na         1 K2C       0.329700
     18 C14          0.9910     0.0010     5.8920 ca         1 K2C      -0.181200
     19 C15          1.6880    -0.0000     4.6740 cp         1 K2C      -0.087000
     20 C4           3.0830    -0.0010     4.6670 ca         1 K2C      -0.026000
     21 C3           3.7720    -0.0010     5.8610 ca         1 K2C      -0.145000
     22 C2           3.0840    -0.0000     7.0650 ca         1 K2C      -0.065000
     23 C1           1.7070    -0.0000     7.0860 ca         1 K2C      -0.133000
     24 H71         -0.3710    -0.8900    -0.4930 h1         1 K2C       0.024700
     25 HN12        -3.4190    -0.0010     4.7760 hn         1 K2C       0.114700
     26 H8          -2.9600    -0.0000    -0.5730 ha         1 K2C       0.101000
     27 H9          -5.4080    -0.0020    -0.8410 ha         1 K2C       0.105000
     28 H10         -6.8720    -0.0020     1.1390 ha         1 K2C       0.102000
     29 H11         -5.9110     0.0000     3.3990 ha         1 K2C       0.102000
     30 HN13        -1.0870     0.0010     6.3060 hn         1 K2C       0.111700
     31 H4           3.6230    -0.0020     3.7280 ha         1 K2C       0.145000
     32 H3           4.8550    -0.0010     5.8580 ha         1 K2C       0.106000
     33 H2           3.6350    -0.0000     7.9980 ha         1 K2C       0.098000
     34 H1           1.1800     0.0010     8.0330 ha         1 K2C       0.099000
     35 HN6          2.0520    -0.0000    -0.8130 hn         1 K2C       0.201500
     36 H72         -0.3710     0.8890    -0.4950 h1         1 K2C       0.024700
     37 O24          3.0630    -0.0000     1.6140 o          1 K2C      -0.684500
@<TRIPOS>BOND
     1     1     2 1   
     2     1     3 1   
     3     1    24 1   
     4     1    36 1   
     5     2    13 1   
     6     2    35 1   
     7     3     4 ar  
     8     3    14 ar  
     9     4     5 ar  
    10     4     8 1   
    11     5     6 1   
    12     5    16 ar  
    13     6     7 1   
    14     6    25 1   
    15     7     8 ar  
    16     7    12 ar  
    17     8     9 ar  
    18     9    10 ar  
    19     9    26 1   
    20    10    11 ar  
    21    10    27 1   
    22    11    12 ar  
    23    11    28 1   
    24    12    29 1   
    25    13    14 1   
    26    13    37 2   
    27    14    15 ar  
    28    15    16 ar  
    29    15    19 1   
    30    16    17 1   
    31    17    18 1   
    32    17    30 1   
    33    18    19 ar  
    34    18    23 ar  
    35    19    20 ar  
    36    20    21 ar  
    37    20    31 1   
    38    21    22 ar  
    39    21    32 1   
    40    22    23 ar  
    41    22    33 1   
    42    23    34 1   
@<TRIPOS>SUBSTRUCTURE
     1 K2C         1 TEMP              0 ****  ****    0 ROOT
