@<TRIPOS>MOLECULE
molecule
   37    42     1     0     0
SMALL
bcc


@<TRIPOS>ATOM
      1 C7           0.0000     0.0000     0.0000 c3         1 K2C       0.144300
      2 N6           1.4680     0.0000     0.0000 ns         1 K2C      -0.588900
      3 C22         -0.4200     0.0010     1.4490 ca         1 K2C      -0.061300
      4 C21         -1.6590     0.0010     2.0790 cp         1 K2C      -0.060000
      5 C18         -1.7450     0.0010     3.4800 ca         1 K2C       0.009800
      6 N12         -3.0780     0.0000     3.8350 na         1 K2C      -0.185300
      7 C19         -3.8770     0.0000     2.7070 ca         1 K2C       0.000800
      8 C20         -3.0460     0.0000     1.5770 cp         1 K2C      -0.085000
      9 C8          -3.6020     0.0000     0.3000 ca         1 K2C      -0.073000
     10 C9          -4.9730    -0.0010     0.1510 ca         1 K2C      -0.158000
     11 C10         -5.7960    -0.0010     1.2660 ca         1 K2C      -0.095000
     12 C11         -5.2590     0.0000     2.5350 ca         1 K2C      -0.154000
     13 C5           1.8960     0.0000     1.2750 c          1 K2C       0.725100
     14 C23          0.7520     0.0000     2.2000 ca         1 K2C      -0.141600
     15 C16          0.6700     0.0010     3.6100 cp         1 K2C       0.006000
     16 C17         -0.5710     0.0010     4.2470 ca         1 K2C      -0.033200
     17 N13         -0.3620     0.0010     5.6170 na         1 K2C      -0.191300
     18 C14          0.9910     0.0010     5.8920 ca         1 K2C       0.004800
     19 C15          1.6880    -0.0000     4.6740 cp         1 K2C      -0.094000
     20 C4           3.0830    -0.0010     4.6670 ca         1 K2C      -0.051000
     21 C3           3.7720    -0.0010     5.8610 ca         1 K2C      -0.171000
     22 C2           3.0840    -0.0000     7.0650 ca         1 K2C      -0.088000
     23 C1           1.7070    -0.0000     7.0860 ca         1 K2C      -0.170000
     24 H71         -0.3710    -0.8900    -0.4930 h1         1 K2C       0.059700
     25 HN12        -3.4190    -0.0010     4.7760 hn         1 K2C       0.297700
     26 H8          -2.9600    -0.0000    -0.5730 ha         1 K2C       0.130000
     27 H9          -5.4080    -0.0020    -0.8410 ha         1 K2C       0.133000
     28 H10         -6.8720    -0.0020     1.1390 ha         1 K2C       0.134000
     29 H11         -5.9110     0.0000     3.3990 ha         1 K2C       0.129000
     30 HN13        -1.0870     0.0010     6.3060 hn         1 K2C       0.293700
     31 H4           3.6230    -0.0020     3.7280 ha         1 K2C       0.172000
     32 H3           4.8550    -0.0010     5.8580 ha         1 K2C       0.134000
     33 H2           3.6350    -0.0000     7.9980 ha         1 K2C       0.130000
     34 H1           1.1800     0.0010     8.0330 ha         1 K2C       0.125000
     35 HN6          2.0520    -0.0000    -0.8130 hn         1 K2C       0.350500
     36 H72         -0.3710     0.8890    -0.4950 h1         1 K2C       0.059700
     37 O24          3.0630    -0.0000     1.6140 o          1 K2C      -0.640500
@<TRIPOS>BOND
     1    21    20 ar
     2    21    22 ar
     3    20    19 ar
     4    22    23 ar
     5    37    13 2
     6    13     2 1
     7    13    14 1
     8    19    18 ar
     9    19    15 1
    10    23    18 ar
    11     2     1 1
    12    18    17 1
    13    14    15 ar
    14    14     3 ar
    15    15    16 ar
    16     1     3 1
    17    17    16 1
    18     3     4 ar
    19    16     5 ar
    20     4     5 ar
    21     4     8 1
    22     5     6 1
    23     6     7 1
    24     8     9 ar
    25     8     7 ar
    26     9    10 ar
    27     7    12 ar
    28    10    11 ar
    29    12    11 ar
    30     1    24 1
    31     6    25 1
    32     9    26 1
    33    10    27 1
    34    11    28 1
    35    12    29 1
    36    17    30 1
    37    20    31 1
    38    21    32 1
    39    22    33 1
    40    23    34 1
    41     2    35 1
    42     1    36 1
@<TRIPOS>SUBSTRUCTURE
     1 K2C         1 TEMP              0 ****  ****    0 ROOT
