@<TRIPOS>MOLECULE
K2D
   83    86     1     0     0
SMALL
bcc


@<TRIPOS>ATOM
      1 C1           0.0000     0.0000     0.0000 c3         1 K2D       0.245700
      2 O1           1.4290     0.0000     0.0000 os         1 K2D      -0.303900
      3 C2           2.0470     0.0000     1.2100 ca         1 K2D       0.202100
      4 C3           3.4320    -0.0010     1.2830 ca         1 K2D      -0.211000
      5 C4           4.0580    -0.0020     2.5150 ca         1 K2D       0.042000
      6 C5           3.3040    -0.0020     3.6740 ca         1 K2D      -0.210500
      7 C6           1.9230    -0.0030     3.6040 ca         1 K2D       0.042000
      8 C7           1.2930     0.0040     2.3750 ca         1 K2D      -0.211000
      9 S8           4.1050    -0.0030     5.2440 sy         1 K2D       1.047200
     10 O9           3.1740    -0.5480     6.1690 o          1 K2D      -0.585800
     11 O10          5.4000    -0.5480     5.0330 o          1 K2D      -0.585800
     12 N11          4.3280     1.5790     5.6820 n3         1 K2D      -0.509500
     13 C12          3.3780     2.2280     6.5890 c3         1 K2D       0.214800
     14 C13          3.9140     2.1620     8.0200 c3         1 K2D      -0.069700
     15 C14          3.9750     0.7020     8.4750 c3         1 K2D      -0.039900
     16 C15          5.3180     2.7700     8.0680 c3         1 K2D      -0.039900
     17 C16          5.4740     2.3280     5.1620 c3         1 K2D       0.167800
     18 C17          5.0600     3.0800     3.8960 c3         1 K2D       0.142100
     19 C18          5.2360     4.2640     7.7470 c3         1 K2D      -0.010600
     20 O18          4.0810     4.0680     4.2270 oh         1 K2D      -0.581800
     21 C19          6.2850     3.7620     3.2830 c3         1 K2D       0.012700
     22 C20          2.5550     0.1540     8.6200 c3         1 K2D      -0.010600
     23 N20          5.9130     4.3830     2.0090 ns         1 K2D      -0.168900
     24 C21          6.8500     4.5910     1.0620 c          1 K2D       0.674100
     25 O22          8.0030     4.2650     1.2660 o          1 K2D      -0.643000
     26 O23          6.5080     5.1620    -0.1080 os         1 K2D      -0.412900
     27 C24          7.5680     5.3560    -1.0810 c3         1 K2D       0.170100
     28 C25          7.6650     4.1400    -2.0190 c3         1 K2D       0.190400
     29 O26          7.3290     4.5880    -3.3390 os         1 K2D      -0.416600
     30 C27          7.6230     5.9950    -3.4180 c3         1 K2D       0.398900
     31 O28          6.6980     6.6110    -4.3260 os         1 K2D      -0.397600
     32 C29          5.5150     7.0170    -3.6340 c3         1 K2D       0.216400
     33 C30          5.6960     6.6540    -2.1450 c3         1 K2D      -0.051400
     34 C31          7.2340     6.5420    -2.0090 c3         1 K2D      -0.124700
     35 C32          6.8040     4.8360     4.2410 c3         1 K2D       0.006900
     36 C33          8.0330     6.5210     2.8580 ca         1 K2D      -0.092000
     37 C34          9.2040     7.0580     2.3570 ca         1 K2D      -0.092500
     38 C35         10.4210     6.4980     2.6950 ca         1 K2D      -0.099000
     39 C36         10.4680     5.4000     3.5320 ca         1 K2D      -0.092500
     40 C37          9.2970     4.8610     4.0330 ca         1 K2D      -0.092000
     41 C38          8.0790     5.4220     3.6960 ca         1 K2D      -0.079300
     42 H1          -0.3610     0.8890     0.5030 h1         1 K2D       0.000700
     43 H1A         -0.3610    -0.0080    -1.0210 h1         1 K2D       0.000700
     44 H1B         -0.3610    -0.8800     0.5180 h1         1 K2D       0.000700
     45 H3           4.0230    -0.0000     0.3750 ha         1 K2D       0.126500
     46 H4           5.1400    -0.0020     2.5730 ha         1 K2D       0.123000
     47 H6           1.3340    -0.0010     4.5140 ha         1 K2D       0.123000
     48 H7           0.2110     0.0040     2.3200 ha         1 K2D       0.126500
     49 H12          2.4230     1.7190     6.5370 h1         1 K2D       0.035700
     50 H12A         3.2520     3.2640     6.2980 h1         1 K2D       0.035700
     51 H13          3.2570     2.7180     8.6770 hc         1 K2D       0.034700
     52 H14          4.4840     0.6420     9.4290 hc         1 K2D       0.021450
     53 H14A         4.5150     0.1170     7.7400 hc         1 K2D       0.021450
     54 H15          5.7360     2.6360     9.0590 hc         1 K2D       0.021450
     55 H15A         5.9500     2.2780     7.3390 hc         1 K2D       0.021450
     56 H16          6.2780     1.6410     4.9270 h1         1 K2D       0.064700
     57 H16A         5.8110     3.0370     5.9080 h1         1 K2D       0.064700
     58 H17          4.6400     2.3820     3.1820 h1         1 K2D       0.013700
     59 H18          6.2340     4.6870     7.7390 hc         1 K2D       0.008867
     60 H18A         4.6380     4.7640     8.5000 hc         1 K2D       0.008867
     61 H18B         4.7790     4.4000     6.7740 hc         1 K2D       0.008867
     62 HO18         3.3650     4.0190     3.6150 ho         1 K2D       0.390000
     63 H19          7.0600     3.0250     3.1130 h1         1 K2D       0.069700
     64 H20          2.5200    -0.8620     8.2440 hc         1 K2D       0.008867
     65 H20A         2.2690     0.1620     9.6640 hc         1 K2D       0.008867
     66 H20B         1.8690     0.7720     8.0530 hc         1 K2D       0.008867
     67 HN20         4.9640     4.6550     1.8430 hn         1 K2D       0.171500
     68 H24          8.5170     5.5240    -0.5850 h1         1 K2D       0.055700
     69 H25          8.6750     3.7500    -2.0100 h1         1 K2D       0.021200
     70 H25A         6.9660     3.3760    -1.7020 h1         1 K2D       0.021200
     71 H27          8.6570     6.1940    -3.6710 h2         1 K2D       0.040700
     72 H29          5.3800     8.0870    -3.7360 h1         1 K2D       0.005700
     73 H29A         4.6570     6.4930    -4.0370 h1         1 K2D       0.005700
     74 H30          5.2210     5.7060    -1.9220 hc         1 K2D       0.034200
     75 H30A         5.3120     7.4430    -1.5090 hc         1 K2D       0.034200
     76 H31          7.7280     7.4700    -1.7460 hc         1 K2D       0.057700
     77 H32          6.0610     5.6180     4.3430 hc         1 K2D       0.034700
     78 H32A         6.9960     4.3930     5.2110 hc         1 K2D       0.034700
     79 H34          9.1680     7.9190     1.7000 ha         1 K2D       0.098000
     80 H35         11.3390     6.9190     2.3020 ha         1 K2D       0.098000
     81 H36         11.4230     4.9610     3.7960 ha         1 K2D       0.098000
     82 H37          9.3340     4.0010     4.6900 ha         1 K2D       0.100000
     83 H33          7.0780     6.9600     2.5930 ha         1 K2D       0.100000
@<TRIPOS>BOND
     1     1     2 1   
     2     1    42 1   
     3     1    43 1   
     4     1    44 1   
     5     2     3 1   
     6     3     4 ar  
     7     3     8 ar  
     8     4     5 ar  
     9     4    45 1   
    10     5     6 ar  
    11     5    46 1   
    12     6     7 ar  
    13     6     9 1   
    14     7     8 ar  
    15     7    47 1   
    16     8    48 1   
    17     9    10 2   
    18     9    11 2   
    19     9    12 1   
    20    12    13 1   
    21    12    17 1   
    22    13    14 1   
    23    13    49 1   
    24    13    50 1   
    25    14    15 1   
    26    14    16 1   
    27    14    51 1   
    28    15    22 1   
    29    15    52 1   
    30    15    53 1   
    31    16    19 1   
    32    16    54 1   
    33    16    55 1   
    34    17    18 1   
    35    17    56 1   
    36    17    57 1   
    37    18    20 1   
    38    18    21 1   
    39    18    58 1   
    40    19    59 1   
    41    19    60 1   
    42    19    61 1   
    43    20    62 1   
    44    21    23 1   
    45    21    35 1   
    46    21    63 1   
    47    22    64 1   
    48    22    65 1   
    49    22    66 1   
    50    23    24 1   
    51    23    67 1   
    52    24    25 2   
    53    24    26 1   
    54    26    27 1   
    55    27    28 1   
    56    27    34 1   
    57    27    68 1   
    58    28    29 1   
    59    28    69 1   
    60    28    70 1   
    61    29    30 1   
    62    30    31 1   
    63    30    34 1   
    64    30    71 1   
    65    31    32 1   
    66    32    33 1   
    67    32    72 1   
    68    32    73 1   
    69    33    34 1   
    70    33    74 1   
    71    33    75 1   
    72    34    76 1   
    73    35    41 1   
    74    35    77 1   
    75    35    78 1   
    76    36    37 ar  
    77    36    41 ar  
    78    36    83 1   
    79    37    38 ar  
    80    37    79 1   
    81    38    39 ar  
    82    38    80 1   
    83    39    40 ar  
    84    39    81 1   
    85    40    41 ar  
    86    40    82 1   
@<TRIPOS>SUBSTRUCTURE
     1 K2D         1 TEMP              0 ****  ****    0 ROOT
