@<TRIPOS>MOLECULE
molecule
   82    86     1     0     0
SMALL
bcc


@<TRIPOS>ATOM
      1 C1           0.0000     0.0000     0.0000 c3         1 K2E       0.330200
      2 O1           1.4400     0.0000     0.0000 os         1 K2E      -0.320900
      3 C2           1.8040     0.0000     1.3160 ca         1 K2E       0.101100
      4 O2          -0.3420     0.6360     1.2460 os         1 K2E      -0.318900
      5 C3           0.7080     0.3910     2.0810 ca         1 K2E       0.025100
      6 C4           0.8230     0.4690     3.4600 ca         1 K2E      -0.026000
      7 C5           2.0240     0.1610     4.0730 ca         1 K2E      -0.320500
      8 C6           3.1110    -0.2270     3.3120 ca         1 K2E      -0.024000
      9 C7           3.0040    -0.3080     1.9370 ca         1 K2E      -0.139000
     10 S8           2.1670     0.2630     5.8260 sy         1 K2E       1.421200
     11 O9           3.5490     0.4430     6.1050 o          1 K2E      -0.629800
     12 O10          1.1620     1.1700     6.2580 o          1 K2E      -0.629800
     13 N11          1.7560    -1.2190     6.4380 n3         1 K2E      -0.806500
     14 C12          2.8010    -2.1840     6.7870 c3         1 K2E       0.232800
     15 C13          3.1080    -2.0850     8.2830 c3         1 K2E      -0.089700
     16 C14          3.7070    -0.7110     8.5900 c3         1 K2E      -0.079400
     17 C15          1.8170    -2.2690     9.0820 c3         1 K2E      -0.079400
     18 C16          0.3450    -1.5660     6.6310 c3         1 K2E       0.208800
     19 C17         -0.1740    -2.3000     5.3930 c3         1 K2E       0.102100
     20 C18          1.2930    -3.6920     8.8830 c3         1 K2E      -0.095100
     21 O18          0.5060    -3.5490     5.2600 oh         1 K2E      -0.600800
     22 C19         -1.6760    -2.5510     5.5420 c3         1 K2E       0.123700
     23 C20          5.0930    -0.6030     7.9510 c3         1 K2E      -0.095100
     24 N20         -2.1960    -3.1470     4.3080 ns         1 K2E      -0.569900
     25 C21         -3.4970    -3.0020     3.9860 c          1 K2E       0.745100
     26 O22         -4.2380    -2.3790     4.7200 o          1 K2E      -0.593000
     27 O23         -3.9740    -3.5490     2.8530 os         1 K2E      -0.434900
     28 C24         -5.3850    -3.3540     2.5690 c3         1 K2E       0.138100
     29 C25         -5.5910    -2.0890     1.7180 c3         1 K2E       0.114400
     30 O26         -6.1130    -2.5050     0.4490 os         1 K2E      -0.422600
     31 C27         -6.7960    -3.7590     0.6400 c3         1 K2E       0.332900
     32 O28         -6.6790    -4.5370    -0.5590 os         1 K2E      -0.397600
     33 C29         -5.4810    -5.3190    -0.5320 c3         1 K2E       0.128400
     34 C30         -4.7710    -5.0420     0.8100 c3         1 K2E      -0.097400
     35 C31         -5.9230    -4.5060     1.6970 c3         1 K2E      -0.139700
     36 C32         -1.9200    -3.5080     6.7110 c3         1 K2E      -0.048100
     37 C33         -4.1030    -4.6530     6.2780 ca         1 K2E      -0.116500
     38 C34         -5.4630    -4.7910     6.4830 ca         1 K2E      -0.121500
     39 C35         -6.1220    -3.9360     7.3460 ca         1 K2E      -0.126000
     40 C36         -5.4220    -2.9420     8.0040 ca         1 K2E      -0.121500
     41 C37         -4.0620    -2.8030     7.7980 ca         1 K2E      -0.116500
     42 C38         -3.4030    -3.6590     6.9360 ca         1 K2E      -0.071300
     43 H1          -0.3680    -1.0190    -0.0050 h2         1 K2E       0.077200
     44 H1A         -0.3680     0.5930    -0.8290 h2         1 K2E       0.077200
     45 H4          -0.0270     0.7730     4.0570 ha         1 K2E       0.164000
     46 H6           4.0500    -0.4680     3.7960 ha         1 K2E       0.160000
     47 H7           3.8580    -0.6120     1.3440 ha         1 K2E       0.152000
     48 H12          2.4600    -3.1860     6.5540 h1         1 K2E       0.063700
     49 H12A         3.6970    -1.9670     6.2190 h1         1 K2E       0.063700
     50 H13          3.8170    -2.8570     8.5580 hc         1 K2E       0.060700
     51 H14          3.7930    -0.5860     9.6620 hc         1 K2E       0.041450
     52 H14A         3.0620     0.0610     8.1870 hc         1 K2E       0.041450
     53 H15          1.0750    -1.5590     8.7370 hc         1 K2E       0.041450
     54 H15A         2.0170    -2.1010    10.1330 hc         1 K2E       0.041450
     55 H16          0.2460    -2.2070     7.4990 h1         1 K2E       0.089700
     56 H16A        -0.2320    -0.6610     6.7820 h1         1 K2E       0.089700
     57 H17          0.0060    -1.6950     4.5120 h1         1 K2E       0.043700
     58 H18          1.9930    -4.3990     9.3120 hc         1 K2E       0.038033
     59 H18A         0.3320    -3.7940     9.3730 hc         1 K2E       0.038033
     60 H18B         1.1810    -3.8920     7.8240 hc         1 K2E       0.038033
     61 HO18         0.7890    -3.6600     4.3670 ho         1 K2E       0.403000
     62 H19         -2.1820    -1.6120     5.7310 h1         1 K2E       0.091700
     63 H20          5.8520    -0.7370     8.7110 hc         1 K2E       0.038033
     64 H20A         5.2020    -1.3700     7.1930 hc         1 K2E       0.038033
     65 H20B         5.2060     0.3730     7.4960 hc         1 K2E       0.038033
     66 HN20        -1.5750    -3.6180     3.6800 hn         1 K2E       0.318500
     67 H24         -5.9540    -3.2830     3.4880 h1         1 K2E       0.089700
     68 H25         -4.6430    -1.5830     1.5770 h1         1 K2E       0.064700
     69 H25A        -6.2980    -1.4290     2.2070 h1         1 K2E       0.064700
     70 H27         -7.8230    -3.6340     0.9620 h2         1 K2E       0.095700
     71 H29         -5.7290    -6.3710    -0.6050 h1         1 K2E       0.048700
     72 H29A        -4.8370    -5.0300    -1.3540 h1         1 K2E       0.048700
     73 H30         -4.0010    -4.2900     0.6870 hc         1 K2E       0.065700
     74 H30A        -4.3640    -5.9570     1.2230 hc         1 K2E       0.065700
     75 H31         -6.4580    -5.2720     2.2450 hc         1 K2E       0.088700
     76 H32         -1.4890    -4.4750     6.4830 hc         1 K2E       0.061700
     77 H32A        -1.4580    -3.1090     7.6070 hc         1 K2E       0.061700
     78 H34         -6.0120    -5.5700     5.9680 ha         1 K2E       0.124500
     79 H35         -7.1880    -4.0440     7.5070 ha         1 K2E       0.125000
     80 H36         -5.9390    -2.2720     8.6800 ha         1 K2E       0.124500
     81 H37         -3.5130    -2.0250     8.3140 ha         1 K2E       0.124000
     82 H33         -3.5860    -5.3230     5.6030 ha         1 K2E       0.124000
@<TRIPOS>BOND
     1     1     2 1
     2     1     4 1
     3     2     3 1
     4     3     5 ar
     5     3     9 ar
     6     4     5 1
     7     5     6 ar
     8     6     7 ar
     9     7     8 ar
    10     7    10 1
    11     8     9 ar
    12    10    11 2
    13    10    12 2
    14    10    13 1
    15    13    14 1
    16    13    18 1
    17    14    15 1
    18    15    16 1
    19    15    17 1
    20    16    23 1
    21    17    20 1
    22    18    19 1
    23    19    21 1
    24    19    22 1
    25    22    24 1
    26    22    36 1
    27    24    25 1
    28    25    26 2
    29    25    27 1
    30    27    28 1
    31    28    29 1
    32    28    35 1
    33    29    30 1
    34    30    31 1
    35    31    32 1
    36    31    35 1
    37    32    33 1
    38    33    34 1
    39    34    35 1
    40    36    42 1
    41    37    38 ar
    42    37    42 ar
    43    38    39 ar
    44    39    40 ar
    45    40    41 ar
    46    41    42 ar
    47     1    43 1
    48     1    44 1
    49     6    45 1
    50     8    46 1
    51     9    47 1
    52    14    48 1
    53    14    49 1
    54    15    50 1
    55    16    51 1
    56    16    52 1
    57    17    53 1
    58    17    54 1
    59    18    55 1
    60    18    56 1
    61    19    57 1
    62    20    58 1
    63    20    59 1
    64    20    60 1
    65    21    61 1
    66    22    62 1
    67    23    63 1
    68    23    64 1
    69    23    65 1
    70    24    66 1
    71    28    67 1
    72    29    68 1
    73    29    69 1
    74    31    70 1
    75    33    71 1
    76    33    72 1
    77    34    73 1
    78    34    74 1
    79    35    75 1
    80    36    76 1
    81    36    77 1
    82    37    82 1
    83    38    78 1
    84    39    79 1
    85    40    80 1
    86    41    81 1
@<TRIPOS>SUBSTRUCTURE
     1 K2E         1 TEMP              0 ****  ****    0 ROOT
