@<TRIPOS>MOLECULE
molecule
   24    24     1     0     0
SMALL
bcc


@<TRIPOS>ATOM
      1 N1           0.0000     0.0000     0.0000 nb         1 K2G      -0.755000
      2 C4           1.2510     0.0000     2.3900 ca         1 K2G       0.495200
      3 C5           2.0060     0.0000     1.2230 ca         1 K2G      -0.156200
      4 C6           1.3310     0.0000     0.0000 ca         1 K2G       0.347800
      5 C7           2.0840    -0.0000    -1.2780 c          1 K2G       0.409600
      6 N           -0.0670     0.0000     2.3030 nb         1 K2G      -0.656000
      7 C           -2.7100    -1.2490     1.7910 c3         1 K2G      -0.087600
      8 O            3.3000    -0.0000    -1.2670 o          1 K2G      -0.384100
      9 C2          -2.7100     1.2490     1.7910 c3         1 K2G      -0.087600
     10 C3          -0.6720     0.0000     1.1310 ca         1 K2G       0.725300
     11 N2           1.4220    -0.0000    -2.4520 nz         1 K2G      -0.670400
     12 Cl           3.7410     0.0000     1.2820 cl         1 K2G       0.002600
     13 H1           1.7370    -0.0000     3.3580 h4         1 K2G       0.078100
     14 H2          -2.2480    -2.1300     1.3620 hc         1 K2G       0.054200
     15 H3          -2.4910    -1.2070     2.8520 hc         1 K2G       0.054200
     16 H4          -3.7820    -1.2960     1.6450 hc         1 K2G       0.054200
     17 H5          -2.5090    -0.0000     0.0540 hc         1 K2G       0.071700
     18 H6          -2.2480     2.1300     1.3620 hc         1 K2G       0.054200
     19 H7          -2.4480     1.1790     2.8400 hc         1 K2G       0.054200
     20 H8          -3.7860     1.3210     1.6920 hc         1 K2G       0.054200
     21 H9           2.0800     0.0000    -3.2060 hn         1 K2G       0.484467
     22 H10          0.8480    -0.8170    -2.5100 hn         1 K2G       0.484467
     23 C1          -2.1790     0.0000     1.0850 c3         1 K2G      -0.110000
     24 H23          0.8480     0.8170    -2.5100 hn         1 K2G       0.484467
@<TRIPOS>BOND
     1     7    23 1
     2    23     9 1
     3    23    10 1
     4     6    10 ar
     5     6     2 ar
     6    10     1 ar
     7     2     3 ar
     8     1     4 ar
     9     3     4 ar
    10     3    12 1
    11     4     5 1
    12    11     5 1
    13     5     8 2
    14     2    13 1
    15     7    14 1
    16     7    15 1
    17     7    16 1
    18    23    17 1
    19     9    18 1
    20     9    19 1
    21     9    20 1
    22    11    21 1
    23    11    22 1
    24    24    11 1
@<TRIPOS>SUBSTRUCTURE
     1 K2G         1 TEMP              0 ****  ****    0 ROOT
