@<TRIPOS>MOLECULE
K2J
   19    19     1     0     0
SMALL
bcc


@<TRIPOS>ATOM
      1 N1           0.0000     0.0000     0.0000 nb         1 K2J      -0.734000
      2 C4           1.4020     0.0000     2.3020 ca         1 K2J       0.699600
      3 C5           3.5410    -0.0000     3.3340 c3         1 K2J       0.255700
      4 N            1.9990    -0.0000    -1.2090 nu         1 K2J      -0.485900
      5 C            1.2480    -0.0000    -2.4670 c3         1 K2J       0.203100
      6 O            2.1170     0.0000     3.4540 os         1 K2J      -0.425100
      7 C1           1.3240     0.0000     0.0000 ca         1 K2J       0.755900
      8 C2          -0.6800     0.0000     1.1360 ca         1 K2J       0.520200
      9 C3           0.0080     0.0000     2.3360 ca         1 K2J      -0.450600
     10 N2           2.0190     0.0000     1.1270 nb         1 K2J      -0.779000
     11 H1           3.8580    -0.8850     2.7940 h1         1 K2J       0.000367
     12 H2           3.8580     0.8850     2.7940 h1         1 K2J       0.000367
     13 H3           3.9860    -0.0000     4.3210 h1         1 K2J       0.000367
     14 H4           2.9990     0.0000    -1.2240 hn         1 K2J       0.296800
     15 H5           0.6240    -0.8840    -2.5150 h1         1 K2J       0.009033
     16 H6           1.9400    -0.0000    -3.3000 h1         1 K2J       0.009033
     17 H7           0.6240     0.8850    -2.5150 h1         1 K2J       0.009033
     18 H8          -1.7640    -0.0000     1.1260 h4         1 K2J      -0.020900
     19 H9          -0.5240     0.0000     3.2800 ha         1 K2J       0.135000
@<TRIPOS>BOND
     1     1     7 ar  
     2     1     8 ar  
     3     2     6 1   
     4     2     9 ar  
     5     2    10 ar  
     6     3     6 1   
     7     3    11 1   
     8     3    12 1   
     9     3    13 1   
    10     4     5 1   
    11     4     7 1   
    12     4    14 1   
    13     5    15 1   
    14     5    16 1   
    15     5    17 1   
    16     7    10 ar  
    17     8     9 ar  
    18     8    18 1   
    19     9    19 1   
@<TRIPOS>SUBSTRUCTURE
     1 K2J         1 TEMP              0 ****  ****    0 ROOT
