@<TRIPOS>MOLECULE
molecule
   43    45     1     0     0
SMALL
bcc


@<TRIPOS>ATOM
      1 CAA          0.0000     0.0000     0.0000 c3         1 K2N      -0.098100
      2 CAB          8.7510    -2.6520     5.7460 c3         1 K2N      -0.127100
      3 OAD          4.0880    -0.0020     0.5820 o          1 K2N      -0.533000
      4 CAE         14.0670    -0.8850     4.8980 ca         1 K2N      -0.117000
      5 CAF         13.2810    -1.2240     5.9860 ca         1 K2N      -0.135500
      6 CAG         13.4800    -0.5010     3.7050 ca         1 K2N      -0.135500
      7 CAH         11.9060    -1.1870     5.8860 ca         1 K2N      -0.100000
      8 CAI         12.1070    -0.4530     3.5910 ca         1 K2N      -0.100000
      9 CAJ          5.7510    -0.2140     4.2640 ca         1 K2N      -0.359300
     10 CAK          1.5290     0.0000     0.0000 c3         1 K2N       0.166400
     11 NAL          9.3010    -0.3850     3.4470 ne         1 K2N      -0.534100
     12 NAM          6.0420    -0.1090     1.9190 nb         1 K2N      -0.731000
     13 NAN          3.8640    -0.0010     2.7910 ns         1 K2N      -0.535400
     14 NAO          7.7100    -0.4320     5.6870 nu         1 K2N      -0.689600
     15 OAP          2.0130     0.0000     1.3690 os         1 K2N      -0.449900
     16 CAQ          3.3480    -0.0010     1.5450 c          1 K2N       0.736100
     17 CAR          9.8380    -0.7580     4.5700 cf         1 K2N       0.449900
     18 CAS         11.3060    -0.8060     4.6830 ca         1 K2N      -0.125900
     19 CAT          7.3600    -0.1940     2.0310 ca         1 K2N       0.777200
     20 CAU          5.2400    -0.1090     2.9750 ca         1 K2N       0.616200
     21 CAV          7.1210    -0.3140     4.4320 ca         1 K2N       0.158600
     22 CAW          7.9520    -0.3000     3.2960 ca         1 K2N      -0.079900
     23 CAX          8.9980    -1.1420     5.7590 c3         1 K2N       0.106200
     24 HAA         -0.3610    -0.0150    -1.0210 hc         1 K2N       0.047700
     25 HAAA        -0.3610     0.8920     0.4970 hc         1 K2N       0.047700
     26 H3          -0.3610    -0.8770     0.5240 hc         1 K2N       0.047700
     27 HAB          9.2780    -3.1110     6.5740 hc         1 K2N       0.048033
     28 HABA         9.1120    -3.0680     4.8130 hc         1 K2N       0.048033
     29 HABB         7.6900    -2.8450     5.8410 hc         1 K2N       0.048033
     30 HNAC         8.4950     0.6750     0.5240 hn         1 K2N       0.441800
     31 HNAA         8.3430    -1.0480     0.4120 hn         1 K2N       0.441800
     32 HAF         13.7480    -1.5210     6.9170 ha         1 K2N       0.131500
     33 HAG         14.1020    -0.2340     2.8590 ha         1 K2N       0.131500
     34 HAH         11.2930    -1.4570     6.7380 ha         1 K2N       0.143000
     35 HAJ          5.0890    -0.2130     5.1220 ha         1 K2N       0.138000
     36 HNAN         3.2590     0.0930     3.5820 hn         1 K2N       0.338500
     37 HNAO         7.0610    -0.8520     6.3220 hn         1 K2N       0.389800
     38 HAX          9.5130    -0.8620     6.6700 h1         1 K2N       0.085700
     39 HAI         11.6490    -0.1550     2.6560 ha         1 K2N       0.143000
     40 HAK          1.8900    -0.8840    -0.5110 h1         1 K2N       0.051700
     41 H19          1.8900     0.8850    -0.5110 h1         1 K2N       0.051700
     42 NAC          8.1530    -0.1910     0.8920 nv         1 K2N      -1.064500
     43 HAE         15.1460    -0.9190     4.9810 ha         1 K2N       0.129000
@<TRIPOS>BOND
     1     2    23 1
     2    42    19 1
     3     4     5 ar
     4     5     7 ar
     5     6     4 ar
     6     6     8 ar
     7     8    18 ar
     8     9    20 ar
     9    10     1 1
    10    11    22 1
    11    12    20 ar
    12    13    16 1
    13    14    21 1
    14    15    10 1
    15    15    16 1
    16    16     3 2
    17    17    11 2
    18    18     7 ar
    19    18    17 1
    20    19    12 ar
    21    20    13 1
    22    21     9 ar
    23    22    19 ar
    24    22    21 ar
    25    23    14 1
    26    23    17 1
    27     1    24 1
    28     1    25 1
    29     1    26 1
    30     2    27 1
    31     2    28 1
    32     2    29 1
    33    42    30 1
    34    42    31 1
    35     4    43 1
    36     5    32 1
    37     6    33 1
    38     7    34 1
    39     9    35 1
    40    13    36 1
    41    14    37 1
    42    23    38 1
    43     8    39 1
    44    10    40 1
    45    10    41 1
@<TRIPOS>SUBSTRUCTURE
     1 K2N         1 TEMP              0 ****  ****    0 ROOT
