@<TRIPOS>MOLECULE
molecule
   18    18     1     0     0
SMALL
bcc


@<TRIPOS>ATOM
      1 C4           0.0000     0.0000     0.0000 ca         1 K2P      -0.120000
      2 C5           1.3810     0.0000     0.0000 ca         1 K2P      -0.233000
      3 C6           2.0760     0.0000     1.2010 ca         1 K2P       0.132100
      4 C7           4.0820    -0.0000    -0.0700 c3         1 K2P       0.777700
      5 O            3.3120     0.0010     3.7030 o          1 K2P      -0.825800
      6 C1           1.3700     0.0000     2.4110 ca         1 K2P      -0.104600
      7 C2          -0.0280     0.0000     2.3960 ca         1 K2P      -0.068000
      8 C3          -0.7020     0.0000     1.1940 ca         1 K2P      -0.184000
      9 F            3.7080    -1.1420    -0.7850 f          1 K2P      -0.222633
     10 F1           5.4700     0.0000     0.1150 f          1 K2P      -0.222633
     11 F2           3.7080     1.1420    -0.7850 f          1 K2P      -0.222633
     12 O1           1.4150     0.0000     4.8550 o          1 K2P      -0.825800
     13 O2           3.4320    -0.0000     1.2020 os         1 K2P      -0.265900
     14 H1          -0.5380    -0.0000    -0.9400 ha         1 K2P       0.107000
     15 H2           1.9220     0.0000    -0.9380 ha         1 K2P       0.126000
     16 H3          -0.5800     0.0000     3.3280 ha         1 K2P       0.163000
     17 H4          -1.7850     0.0000     1.1830 ha         1 K2P       0.109000
     18 C            2.0970    -0.0000     3.6930 c          1 K2P       0.880200
@<TRIPOS>BOND
     1     9     4 1
     2    10     4 1
     3     4    13 1
     4     4    11 1
     5    13     3 1
     6     3     2 ar
     7     3     6 ar
     8     2     1 ar
     9     5    18 1
    10     6    18 1
    11     6     7 ar
    12    18    12 1
    13     1     8 ar
    14     7     8 ar
    15     1    14 1
    16     2    15 1
    17     7    16 1
    18     8    17 1
@<TRIPOS>SUBSTRUCTURE
     1 K2P         1 TEMP              0 ****  ****    0 ROOT
