@<TRIPOS>MOLECULE
K2Q
   26    27     1     0     0
SMALL
bcc


@<TRIPOS>ATOM
      1 OAA        -0.0400    0.1340    0.0520 o         1 K2Q     -0.825800
      2 CAK         1.1960    0.3500   -0.0740 c         1 K2Q      0.903800
      3 OAB         1.9350    0.8440    0.8250 o         1 K2Q     -0.825800
      4 CAL         1.8600    0.0170   -1.4090 ce        1 K2Q     -0.128400
      5 CAI         3.2930   -0.3520   -1.3160 c3        1 K2Q     -0.063200
      6 CAG         1.1900    0.1140   -2.5630 c2        1 K2Q     -0.259200
      7 CAO         1.8310   -0.0990   -3.9030 c3        1 K2Q      0.196200
      8 OAD         1.2700    0.8030   -4.8680 oh        1 K2Q     -0.609800
      9 CAF         1.5290   -1.4710   -4.4230 c2        1 K2Q     -0.096200
     10 CAE         2.3700   -2.5020   -4.4950 c2        1 K2Q     -0.224200
     11 CAH         3.8060   -2.5260   -4.1130 c3        1 K2Q      0.177600
     12 OAJ         4.0980   -2.0000   -2.8330 os        1 K2Q     -0.417600
     13 CAN         4.0020   -0.5850   -2.6510 c3        1 K2Q      0.115100
     14 CAM         3.3490    0.1840   -3.8050 c3        1 K2Q      0.099100
     15 OAC         3.5690    1.5770   -3.6390 oh        1 K2Q     -0.610800
     16 HAI1        3.8250    0.4620   -0.7510 hc        1 K2Q      0.081200
     17 HAI2        3.3760   -1.2870   -0.6950 hc        1 K2Q      0.081200
     18 HAG         0.1180    0.3600   -2.5770 ha        1 K2Q      0.153000
     19 HAN         5.0720   -0.2280   -2.5710 h1        1 K2Q      0.038700
     20 HAD         1.4340    1.6920   -4.5290 ho        1 K2Q      0.410000
     21 HAF         0.4810   -1.5780   -4.7530 ha        1 K2Q      0.132000
     22 HAE         1.9990   -3.4690   -4.8770 ha        1 K2Q      0.112000
     23 HAH1        4.4290   -2.0190   -4.9010 h1        1 K2Q      0.034700
     24 HAH2        4.1550   -3.5950   -4.0200 h1        1 K2Q      0.034700
     25 HAM         3.8450   -0.0470   -4.7880 h1        1 K2Q      0.071700
     26 HAC         3.1780    1.8230   -2.7870 ho        1 K2Q      0.420000
@<TRIPOS>BOND
     1    1    2 1   
     2    2    3 1   
     3    2    4 1   
     4    4    5 1   
     5    4    6 2   
     6    5   13 1   
     7    5   16 1   
     8    5   17 1   
     9    6    7 1   
    10    6   18 1   
    11    7    8 1   
    12    7    9 1   
    13    7   14 1   
    14    8   20 1   
    15    9   10 2   
    16    9   21 1   
    17   10   11 1   
    18   10   22 1   
    19   11   12 1   
    20   11   23 1   
    21   11   24 1   
    22   12   13 1   
    23   13   14 1   
    24   13   19 1   
    25   14   15 1   
    26   14   25 1   
    27   15   26 1   
@<TRIPOS>SUBSTRUCTURE
     1 K2Q         1 TEMP              0 ****  ****    0 ROOT
