@<TRIPOS>MOLECULE
molecule
   26    27     1     0     0
SMALL
bcc


@<TRIPOS>ATOM
      1 OAA          0.0000     0.0000     0.0000 o          1 K2Q      -0.841300
      2 CAK          1.2160     0.0000     0.0000 c          1 K2Q       0.880800
      3 OAB          1.8890     0.0000     1.1680 o          1 K2Q      -0.841300
      4 CAL          1.9500    -0.0060    -1.2730 ce         1 K2Q      -0.089400
      5 CAI          3.4550    -0.0060    -1.2490 c3         1 K2Q      -0.023200
      6 CAG          1.2760    -0.0170    -2.4030 c2         1 K2Q      -0.232200
      7 CAO          1.8850    -0.0310    -3.7650 c3         1 K2Q       0.235200
      8 OAD          1.3470     1.0780    -4.4870 oh         1 K2Q      -0.603800
      9 CAF          1.4900    -1.2780    -4.4990 c2         1 K2Q      -0.159200
     10 CAE          2.2300    -2.3450    -4.5610 c2         1 K2Q      -0.209200
     11 CAH          3.6240    -2.4210    -4.0120 c3         1 K2Q       0.163600
     12 OAJ          3.6770    -1.9810    -2.6520 os         1 K2Q      -0.389600
     13 CAN          3.9850    -0.5960    -2.5500 c3         1 K2Q       0.124100
     14 CAM          3.3980     0.1240    -3.7460 c3         1 K2Q       0.132100
     15 OAC          3.7330     1.5090    -3.6390 oh         1 K2Q      -0.570800
     16 HAI1         3.8130     1.0110    -1.1430 hc         1 K2Q       0.077700
     17 HAI2         3.8010    -0.6050    -0.4150 hc         1 K2Q       0.077700
     18 HAG          0.1940    -0.0160    -2.3390 ha         1 K2Q       0.147000
     19 HAN          5.0620    -0.4790    -2.5700 h1         1 K2Q       0.019700
     20 HAD          0.4250     0.9430    -4.6310 ho         1 K2Q       0.395000
     21 HAF          0.5330    -1.2910    -5.0060 ha         1 K2Q       0.114000
     22 HAE          1.8180    -3.2270    -5.0360 ha         1 K2Q       0.112000
     23 HAH1         4.2740    -1.7940    -4.6110 h1         1 K2Q       0.036700
     24 HAH2         3.9680    -3.4470    -4.0640 h1         1 K2Q       0.036700
     25 HAM          3.8180    -0.2830    -4.6580 h1         1 K2Q       0.025700
     26 HAC          4.3170     1.7460    -4.3400 ho         1 K2Q       0.383000
@<TRIPOS>BOND
     1     1     2 1
     2     2     3 1
     3     2     4 1
     4     4     5 1
     5     4     6 2
     6     5    13 1
     7     6     7 1
     8     7     8 1
     9     7     9 1
    10     7    14 1
    11     9    10 2
    12    10    11 1
    13    11    12 1
    14    12    13 1
    15    13    14 1
    16    14    15 1
    17     5    16 1
    18     5    17 1
    19     6    18 1
    20    13    19 1
    21     8    20 1
    22     9    21 1
    23    10    22 1
    24    11    23 1
    25    11    24 1
    26    14    25 1
    27    15    26 1
@<TRIPOS>SUBSTRUCTURE
     1 K2Q         1 TEMP              0 ****  ****    0 ROOT
