@<TRIPOS>MOLECULE
K2S
   26    26     1     0     0
SMALL
bcc


@<TRIPOS>ATOM
      1 N1           0.0000     0.0000     0.0000 na         1 K2S       0.462400
      2 C4           2.2370     0.0020    -1.2180 c3         1 K2S       0.057200
      3 C5           0.6260    -0.0060     2.1040 cc         1 K2S       0.467600
      4 C6           0.6210    -0.0090     3.6120 c3         1 K2S      -0.034400
      5 N            3.9010    -1.5860     1.9840 n3         1 K2S      -0.534500
      6 C            4.5060    -2.2780     0.8420 c3         1 K2S       0.263100
      7 O            4.2080     0.5480     0.7840 o          1 K2S      -0.593800
      8 C1           3.7100    -2.2940     3.2520 c3         1 K2S       0.263100
      9 C2           1.7620     0.0000     1.2880 cc         1 K2S      -0.380800
     10 C3           1.3500     0.0000     0.0000 cd         1 K2S      -0.133600
     11 N2          -0.4300    -0.0010     1.3330 nd         1 K2S      -0.676800
     12 O1           3.4240     0.5320     3.1570 o          1 K2S      -0.593800
     13 S            3.4350    -0.0030     1.8400 sy         1 K2S       1.085200
     14 H1          -0.5890     0.0040    -0.8090 hn         1 K2S       0.148700
     15 H2           1.6530     0.2670    -2.0910 hc         1 K2S       0.030367
     16 H3           2.6640    -0.9840    -1.3550 hc         1 K2S       0.030367
     17 H4           3.0330     0.7240    -1.0840 hc         1 K2S       0.030367
     18 H5           1.3060     0.7470     3.9770 hc         1 K2S       0.026700
     19 H6          -0.3790     0.2070     3.9700 hc         1 K2S       0.026700
     20 H7           0.9310    -0.9820     3.9720 hc         1 K2S       0.026700
     21 H8           5.2730    -2.9560     1.1950 h1         1 K2S       0.004867
     22 H9           3.7430    -2.8380     0.3140 h1         1 K2S       0.004867
     23 H10          4.9480    -1.5500     0.1720 h1         1 K2S       0.004867
     24 H11          3.6660    -1.5780     4.0630 h1         1 K2S       0.004867
     25 H12          4.5380    -2.9740     3.4140 h1         1 K2S       0.004867
     26 H13          2.7840    -2.8560     3.2150 h1         1 K2S       0.004867
@<TRIPOS>BOND
     1     1    10 1   
     2     1    11 1   
     3     1    14 1   
     4     2    10 1   
     5     2    15 1   
     6     2    16 1   
     7     2    17 1   
     8     3     4 1   
     9     3     9 1   
    10     3    11 2   
    11     4    18 1   
    12     4    19 1   
    13     4    20 1   
    14     5     6 1   
    15     5     8 1   
    16     5    13 1   
    17     6    21 1   
    18     6    22 1   
    19     6    23 1   
    20     7    13 2   
    21     8    24 1   
    22     8    25 1   
    23     8    26 1   
    24     9    10 2   
    25     9    13 1   
    26    12    13 2   
@<TRIPOS>SUBSTRUCTURE
     1 K2S         1 TEMP              0 ****  ****    0 ROOT
