@<TRIPOS>MOLECULE
molecule
   19    20     1     0     0
SMALL
bcc


@<TRIPOS>ATOM
      1 C1           0.0000     0.0000     0.0000 c3         1 K2T      -0.046800
      2 C2           1.5070     0.0000     0.0000 ca         1 K2T      -0.072300
      3 C3           2.2000     0.0000     1.2010 ca         1 K2T      -0.129000
      4 C4           3.5730     0.0000     1.2160 ca         1 K2T      -0.071000
      5 C5           4.3000    -0.0010     0.0070 ca         1 K2T       0.117400
      6 C6           3.5880    -0.0010    -1.1970 ca         1 K2T      -0.030100
      7 C7           2.1960    -0.0060    -1.1920 ca         1 K2T      -0.093000
      8 S8           4.7440    -0.0020    -2.5270 ss         1 K2T      -0.197100
      9 C9           6.0800    -0.0020    -1.3840 cc         1 K2T       0.656100
     10 N10          5.6350    -0.0010    -0.1740 nd         1 K2T      -0.592100
     11 N11          7.4150    -0.0030    -1.7320 nv         1 K2T      -0.990800
     12 H1          -0.3610    -0.9790    -0.2900 hc         1 K2T       0.045700
     13 H1A         -0.3610     0.7410    -0.7030 hc         1 K2T       0.045700
     14 H1B         -0.3610     0.2390     0.9930 hc         1 K2T       0.045700
     15 H3           1.6530    -0.0000     2.1360 ha         1 K2T       0.136000
     16 H4           4.1010     0.0000     2.1620 ha         1 K2T       0.145000
     17 H7           1.6530    -0.0150    -2.1300 ha         1 K2T       0.137000
     18 HN11         7.8970    -0.8690    -1.8640 hn         1 K2T       0.445800
     19 HN1A         7.8960     0.8640    -1.8720 hn         1 K2T       0.445800
@<TRIPOS>BOND
     1     1     2 1
     2     2     3 ar
     3     2     7 ar
     4     3     4 ar
     5     4     5 ar
     6     5     6 ar
     7     5    10 1
     8     6     7 ar
     9     6     8 1
    10     8     9 1
    11     9    10 2
    12     9    11 1
    13     1    12 1
    14     1    13 1
    15     1    14 1
    16     3    15 1
    17     4    16 1
    18     7    17 1
    19    11    18 1
    20    11    19 1
@<TRIPOS>SUBSTRUCTURE
     1 K2T         1 TEMP              0 ****  ****    0 ROOT
