@<TRIPOS>MOLECULE
K2V
   29    30     1     0     0
SMALL
bcc


@<TRIPOS>ATOM
      1 N1           0.0000     0.0000     0.0000 nb         1 K2V      -0.611500
      2 C4           0.0200     0.0030     4.8370 ca         1 K2V      -0.080000
      3 C5          -0.6960     0.0020     3.6410 cp         1 K2V       0.047000
      4 C6          -2.0890     0.0020     3.6690 ca         1 K2V      -0.080000
      5 C7          -2.7520     0.0040     4.8800 ca         1 K2V      -0.071500
      6 C8           0.0220     0.0010     2.3430 cp         1 K2V      -0.329600
      7 C10          1.3180     0.0000     0.0000 ca         1 K2V       0.660900
      8 N           -2.0740     0.8980     8.3230 nz         1 K2V       0.059400
      9 C           -2.7940    -1.4140     7.9510 c3         1 K2V      -0.002100
     10 C1          -2.7660     0.0070     7.3830 c3         1 K2V       0.011800
     11 C11          1.4190     0.0000     2.2950 ca         1 K2V       0.465700
     12 C2          -2.0370     0.0060     6.0640 ca         1 K2V      -0.202300
     13 C3          -0.6540     0.0050     6.0420 ca         1 K2V      -0.071500
     14 C9          -0.6800     0.0010     1.1340 ca         1 K2V       0.465700
     15 N2           2.0180     0.0000     1.1160 nb         1 K2V      -0.611500
     16 H2          -2.6510     0.0010     2.7430 ha         1 K2V       0.132500
     17 H3          -3.8350     0.0040     4.9030 ha         1 K2V       0.103000
     18 H4           1.8430    -0.0010    -0.9480 h5         1 K2V       0.012100
     19 H6          -1.8860     1.7730     7.8760 hn         1 K2V       0.228467
     20 H8          -2.4370    -2.1100     7.2020 hc         1 K2V       0.038700
     21 H9          -3.8080    -1.6720     8.2300 hc         1 K2V       0.038700
     22 H10         -2.1560    -1.4650     8.8250 hc         1 K2V       0.038700
     23 H11         -3.7810     0.3560     7.2340 hx         1 K2V       0.088700
     24 H12          2.0010     0.0000     3.2090 h4         1 K2V      -0.011400
     25 H13         -0.0980     0.0060     6.9720 ha         1 K2V       0.103000
     26 H14         -1.7630     0.0010     1.1270 h4         1 K2V      -0.011400
     27 H1           1.1030     0.0030     4.8210 ha         1 K2V       0.132500
     28 HN2         -2.6580     1.0590     9.1200 hn         1 K2V       0.228467
     29 H5          -1.2130     0.4760     8.6100 hn         1 K2V       0.228467
@<TRIPOS>BOND
     1     1     7 ar  
     2     1    14 ar  
     3     2     3 ar  
     4     2    13 ar  
     5     2    27 1   
     6     3     4 ar  
     7     3     6 1   
     8     4     5 ar  
     9     4    16 1   
    10     5    12 ar  
    11     5    17 1   
    12     6    11 ar  
    13     6    14 ar  
    14     7    15 ar  
    15     7    18 1   
    16     8    10 1   
    17     8    19 1   
    18     8    28 1   
    19     8    29 1   
    20     9    10 1   
    21     9    20 1   
    22     9    21 1   
    23     9    22 1   
    24    10    12 1   
    25    10    23 1   
    26    11    15 ar  
    27    11    24 1   
    28    12    13 ar  
    29    13    25 1   
    30    14    26 1   
@<TRIPOS>SUBSTRUCTURE
     1 K2V         1 TEMP              0 ****  ****    0 ROOT
