@<TRIPOS>MOLECULE
molecule
   28    28     1     0     0
SMALL
bcc


@<TRIPOS>ATOM
      1 OAE          0.0000     0.0000     0.0000 o          1 K2Y      -0.970917
      2 PAW          1.6110     0.0000     0.0000 p5         1 K2Y       1.263900
      3 OAF          2.1040     0.0000     1.3950 o          1 K2Y      -0.970917
      4 OAA          2.1470    -1.3140    -0.7600 o          1 K2Y      -0.970917
      5 OAO          2.1470     1.3150    -0.7600 os         1 K2Y      -0.474500
      6 CAS          1.8370     2.4820    -0.1320 ca         1 K2Y       0.135850
      7 CAM          2.5240     2.8580     1.0100 ca         1 K2Y      -0.173500
      8 CAT          2.2070     4.0460     1.6500 ca         1 K2Y       0.135850
      9 OAP          2.8810     4.4160     2.7710 os         1 K2Y      -0.474500
     10 PAX          4.3710     4.9610     2.4900 p5         1 K2Y       1.263900
     11 OAG          5.2750     3.7710     1.8940 o          1 K2Y      -0.970917
     12 OAH          4.3130     6.0740     1.5160 o          1 K2Y      -0.970917
     13 OAB          5.0180     5.4880     3.8680 o          1 K2Y      -0.970917
     14 CAV          1.2000     4.8610     1.1440 ca         1 K2Y       0.135850
     15 OAR          0.8890     6.0270     1.7710 os         1 K2Y      -0.474500
     16 PAZ         -0.4830     5.9750     2.6120 p5         1 K2Y       1.263900
     17 OAK         -1.7210     5.7570     1.6050 o          1 K2Y      -0.970917
     18 OAL         -0.4280     4.8510     3.5750 o          1 K2Y      -0.970917
     19 OAD         -0.6780     7.3580     3.4110 o          1 K2Y      -0.970917
     20 CAN          0.5130     4.4850     0.0010 ca         1 K2Y      -0.173500
     21 CAU          0.8330     3.2990    -0.6410 ca         1 K2Y       0.135850
     22 OAQ          0.1570     2.9290    -1.7640 os         1 K2Y      -0.474500
     23 PAY          0.5740     3.7570    -3.0800 p5         1 K2Y       1.263900
     24 OAI          2.1090     3.4380    -3.4510 o          1 K2Y      -0.970917
     25 OAJ         -0.3750     3.3270    -4.3070 o          1 K2Y      -0.970917
     26 OAC          0.4200     5.2060    -2.8210 o          1 K2Y      -0.970917
     27 H3           3.3170     2.2300     1.3970 ha         1 K2Y       0.148500
     28 H8          -0.2700     5.1200    -0.3940 ha         1 K2Y       0.148500
@<TRIPOS>BOND
     1    26    23 1
     2    18    16 1
     3    23    25 1
     4    23    24 1
     5    23    22 1
     6    16    19 1
     7    16    15 1
     8    16    17 1
     9    22    21 1
    10    20    21 ar
    11    20    14 ar
    12    15    14 1
    13    21     6 ar
    14    14     8 ar
    15     6     5 1
    16     6     7 ar
    17     8     7 ar
    18     8     9 1
    19     5     2 1
    20     9    10 1
    21    12    10 1
    22     3     2 1
    23     2     4 1
    24     2     1 1
    25    10    11 1
    26    10    13 1
    27     7    27 1
    28    20    28 1
@<TRIPOS>SUBSTRUCTURE
     1 K2Y         1 TEMP              0 ****  ****    0 ROOT
