@<TRIPOS>MOLECULE
K2Z
   82    83     1     0     0
SMALL
bcc


@<TRIPOS>ATOM
      1 CAU          0.0000     0.0000     0.0000 c3         1 K2Z       0.149800
      2 CAS          1.5310     0.0000     0.0000 c3         1 K2Z       0.155300
      3 NBK          2.0170     0.0000     1.3870 n3         1 K2Z      -0.549600
      4 CAE          3.4840    -0.0770     1.4290 c3         1 K2Z       0.189100
      5 CAT          1.5300     1.1810     2.1130 c3         1 K2Z       0.155300
      6 CAV          0.0000     1.1820     2.1130 c3         1 K2Z       0.149800
      7 NBL         -0.4870     1.1820     0.7260 n3         1 K2Z      -0.547600
      8 CAR         -1.9530     1.2590     0.6840 c3         1 K2Z       0.161800
      9 CAP         -2.4090     2.6150     1.2250 c3         1 K2Z      -0.052400
     10 CAQ         -3.9370     2.6960     1.1810 c3         1 K2Z       0.051000
     11 NAY         -4.3730     3.9940     1.6990 ns         1 K2Z      -0.199900
     12 CBF         -5.6870     4.2900     1.7560 c          1 K2Z       0.541100
     13 OAH         -6.5070     3.4820     1.3770 o          1 K2Z      -0.617100
     14 CBM         -6.1350     5.6260     2.2890 c3         1 K2Z       0.111100
     15 OAI         -7.5510     5.7470     2.1410 oh         1 K2Z      -0.554800
     16 CBJ         -5.7670     5.7330     3.7710 c3         1 K2Z       0.014700
     17 CAO         -6.5560     4.6920     4.5690 c3         1 K2Z      -0.046400
     18 CAA         -6.0980     4.7150     6.0290 c3         1 K2Z      -0.016100
     19 NBA         -6.0960     7.0740     4.2600 ns         1 K2Z      -0.174900
     20 C           -5.4410     7.5830     5.3230 c          1 K2Z       0.568100
     21 O           -4.5810     6.9290     5.8740 o          1 K2Z      -0.655100
     22 CA          -5.7780     8.9630     5.8260 c3         1 K2Z      -0.054300
     23 CB          -5.5290     9.9850     4.7150 c3         1 K2Z      -0.038400
     24 CG          -5.9880    11.3680     5.1830 c3         1 K2Z      -0.067700
     25 CD2         -5.6260    12.4100     4.1230 c3         1 K2Z       0.002900
     26 CD1         -7.5040    11.3590     5.3920 c3         1 K2Z       0.002900
     27 N           -4.9340     9.2810     6.9800 ns         1 K2Z      -0.147900
     28 CBD         -5.3530    10.1810     7.8920 c          1 K2Z       0.679100
     29 OAF         -6.4290    10.7280     7.7570 o          1 K2Z      -0.670000
     30 OBB         -4.5780    10.4740     8.9540 os         1 K2Z      -0.416900
     31 CAW         -5.0910    11.4520     9.8960 c3         1 K2Z       0.301700
     32 CBG         -4.0950    11.6500    11.0090 ca         1 K2Z      -0.120300
     33 CAM         -3.1140    12.6170    10.8960 ca         1 K2Z      -0.074000
     34 CAK         -2.2000    12.7980    11.9170 ca         1 K2Z      -0.106500
     35 CAJ         -2.2670    12.0120    13.0510 ca         1 K2Z      -0.090000
     36 CAL         -3.2480    11.0460    13.1660 ca         1 K2Z      -0.106500
     37 CAN         -4.1650    10.8670    12.1470 ca         1 K2Z      -0.074000
     38 HAU         -0.3600     0.0310    -1.0210 h1         1 K2Z       0.016200
     39 HAUA        -0.3600    -0.8970     0.4890 h1         1 K2Z       0.016200
     40 HAS          1.8910    -0.8860    -0.5080 h1         1 K2Z       0.013950
     41 HASA         1.8910     0.8860    -0.5080 h1         1 K2Z       0.013950
     42 HAE          3.8140    -0.1070     2.4600 h1         1 K2Z       0.000367
     43 HAEA         3.8140    -0.9730     0.9180 h1         1 K2Z       0.000367
     44 HAEB         3.9050     0.7940     0.9410 h1         1 K2Z       0.000367
     45 HAT          1.8900     1.1500     3.1340 h1         1 K2Z       0.013950
     46 HATA         1.8910     2.0780     1.6240 h1         1 K2Z       0.013950
     47 HAV         -0.3610     0.2970     2.6210 h1         1 K2Z       0.016200
     48 HAVA        -0.3590     2.0690     2.6210 h1         1 K2Z       0.016200
     49 HAR         -2.2910     1.1470    -0.3400 h1         1 K2Z       0.013200
     50 HARA        -2.3740     0.4670     1.2920 h1         1 K2Z       0.013200
     51 HAP         -2.0710     2.7270     2.2490 hc         1 K2Z       0.026200
     52 HAPA        -1.9880     3.4060     0.6180 hc         1 K2Z       0.026200
     53 HAQ         -4.2740     2.5840     0.1570 h1         1 K2Z       0.027700
     54 HAQA        -4.3580     1.9040     1.7880 h1         1 K2Z       0.027700
     55 HNAY        -3.6940     4.6800     1.9650 hn         1 K2Z       0.176500
     56 HBM         -5.6450     6.4180     1.7370 h1         1 K2Z       0.008700
     57 HOAI        -7.7480     6.1200     1.2980 ho         1 K2Z       0.397000
     58 HBJ         -4.7060     5.5540     3.8940 h1         1 K2Z       0.056700
     59 HAO         -6.3810     3.7080     4.1510 hc         1 K2Z       0.034200
     60 HAOA        -7.6130     4.9240     4.5180 hc         1 K2Z       0.034200
     61 HAA         -6.5450     5.5620     6.5340 hc         1 K2Z       0.013033
     62 HAAA        -6.4070     3.7990     6.5180 hc         1 K2Z       0.013033
     63 HAAB        -5.0190     4.7990     6.0680 hc         1 K2Z       0.013033
     64 HNBA        -6.8270     7.6000     3.8240 hn         1 K2Z       0.187500
     65 HA          -6.8200     8.9960     6.1200 h1         1 K2Z       0.079700
     66 HB          -4.4710    10.0160     4.4830 hc         1 K2Z       0.019700
     67 HBA         -6.0850     9.7000     3.8310 hc         1 K2Z       0.019700
     68 HG          -5.4960    11.6160     6.1160 hc         1 K2Z       0.052700
     69 HD2         -4.5510    12.4400     3.9980 hc         1 K2Z       0.005700
     70 HD2A        -5.9790    13.3850     4.4390 hc         1 K2Z       0.005700
     71 HD2B        -6.0920    12.1450     3.1810 hc         1 K2Z       0.005700
     72 HD1         -8.0000    11.2370     4.4370 hc         1 K2Z       0.005700
     73 HD1A        -7.7730    10.5380     6.0460 hc         1 K2Z       0.005700
     74 HD1B        -7.8120    12.2950     5.8420 hc         1 K2Z       0.005700
     75 HN          -4.0560     8.8180     7.1010 hn         1 K2Z       0.200500
     76 HAW         -6.0280    11.0990    10.3080 h1         1 K2Z       0.013700
     77 HAWA        -5.2530    12.3940     9.3850 h1         1 K2Z       0.013700
     78 HAM         -3.0610    13.2330    10.0060 ha         1 K2Z       0.106500
     79 HAK         -1.4310    13.5550    11.8270 ha         1 K2Z       0.103500
     80 HAJ         -1.5500    12.1530    13.8510 ha         1 K2Z       0.102000
     81 HAL         -3.3020    10.4310    14.0560 ha         1 K2Z       0.103500
     82 HAN         -4.9340    10.1090    12.2360 ha         1 K2Z       0.106500
@<TRIPOS>BOND
     1     1     2 1   
     2     1     7 1   
     3     1    38 1   
     4     1    39 1   
     5     2     3 1   
     6     2    40 1   
     7     2    41 1   
     8     3     4 1   
     9     3     5 1   
    10     4    42 1   
    11     4    43 1   
    12     4    44 1   
    13     5     6 1   
    14     5    45 1   
    15     5    46 1   
    16     6     7 1   
    17     6    47 1   
    18     6    48 1   
    19     7     8 1   
    20     8     9 1   
    21     8    49 1   
    22     8    50 1   
    23     9    10 1   
    24     9    51 1   
    25     9    52 1   
    26    10    11 1   
    27    10    53 1   
    28    10    54 1   
    29    11    12 1   
    30    11    55 1   
    31    12    13 2   
    32    12    14 1   
    33    14    15 1   
    34    14    16 1   
    35    14    56 1   
    36    15    57 1   
    37    16    17 1   
    38    16    19 1   
    39    16    58 1   
    40    17    18 1   
    41    17    59 1   
    42    17    60 1   
    43    18    61 1   
    44    18    62 1   
    45    18    63 1   
    46    19    20 1   
    47    19    64 1   
    48    20    21 2   
    49    20    22 1   
    50    22    23 1   
    51    22    27 1   
    52    22    65 1   
    53    23    24 1   
    54    23    66 1   
    55    23    67 1   
    56    24    25 1   
    57    24    26 1   
    58    24    68 1   
    59    25    69 1   
    60    25    70 1   
    61    25    71 1   
    62    26    72 1   
    63    26    73 1   
    64    26    74 1   
    65    27    28 1   
    66    27    75 1   
    67    28    29 2   
    68    28    30 1   
    69    30    31 1   
    70    31    32 1   
    71    31    76 1   
    72    31    77 1   
    73    32    33 ar  
    74    32    37 ar  
    75    33    34 ar  
    76    33    78 1   
    77    34    35 ar  
    78    34    79 1   
    79    35    36 ar  
    80    35    80 1   
    81    36    37 ar  
    82    36    81 1   
    83    37    82 1   
@<TRIPOS>SUBSTRUCTURE
     1 K2Z         1 TEMP              0 ****  ****    0 ROOT
