@<TRIPOS>MOLECULE
molecule
   82    83     1     0     0
SMALL
bcc


@<TRIPOS>ATOM
      1 CAU          0.0000     0.0000     0.0000 c3         1 K2Z       0.162300
      2 CAS          1.5310     0.0000     0.0000 c3         1 K2Z       0.163800
      3 NBK          2.0170     0.0000     1.3870 n3         1 K2Z      -0.733600
      4 CAE          3.4840    -0.0770     1.4290 c3         1 K2Z       0.153100
      5 CAT          1.5300     1.1810     2.1130 c3         1 K2Z       0.163800
      6 CAV          0.0000     1.1820     2.1130 c3         1 K2Z       0.162300
      7 NBL         -0.4870     1.1820     0.7260 n3         1 K2Z      -0.734600
      8 CAR         -1.9530     1.2590     0.6840 c3         1 K2Z       0.166800
      9 CAP         -2.4090     2.6150     1.2250 c3         1 K2Z      -0.103400
     10 CAQ         -3.9370     2.6960     1.1810 c3         1 K2Z       0.110000
     11 NAY         -4.3730     3.9940     1.6990 ns         1 K2Z      -0.587900
     12 CBF         -5.6870     4.2900     1.7560 c          1 K2Z       0.631100
     13 OAH         -6.5070     3.4820     1.3770 o          1 K2Z      -0.580100
     14 CBM         -6.1350     5.6260     2.2890 c3         1 K2Z       0.060100
     15 OAI         -7.5510     5.7470     2.1410 oh         1 K2Z      -0.572800
     16 CBJ         -5.7670     5.7330     3.7710 c3         1 K2Z       0.126700
     17 CAO         -6.5560     4.6920     4.5690 c3         1 K2Z      -0.096400
     18 CAA         -6.0980     4.7150     6.0290 c3         1 K2Z      -0.094100
     19 NBA         -6.0960     7.0740     4.2600 ns         1 K2Z      -0.575900
     20 C           -5.4410     7.5830     5.3230 c          1 K2Z       0.652100
     21 O           -4.5810     6.9290     5.8740 o          1 K2Z      -0.613100
     22 CA          -5.7780     8.9630     5.8260 c3         1 K2Z       0.060700
     23 CB          -5.5290     9.9850     4.7150 c3         1 K2Z      -0.091400
     24 CG          -5.9880    11.3680     5.1830 c3         1 K2Z      -0.073700
     25 CD2         -5.6260    12.4100     4.1230 c3         1 K2Z      -0.084600
     26 CD1         -7.5040    11.3590     5.3920 c3         1 K2Z      -0.084600
     27 N           -4.9340     9.2810     6.9800 ns         1 K2Z      -0.555900
     28 CBD         -5.3530    10.1810     7.8920 c          1 K2Z       0.752100
     29 OAF         -6.4290    10.7280     7.7570 o          1 K2Z      -0.622000
     30 OBB         -4.5780    10.4740     8.9540 os         1 K2Z      -0.432900
     31 CAW         -5.0910    11.4520     9.8960 c3         1 K2Z       0.216700
     32 CBG         -4.0950    11.6500    11.0090 ca         1 K2Z      -0.102300
     33 CAM         -3.1140    12.6170    10.8960 ca         1 K2Z      -0.101500
     34 CAK         -2.2000    12.7980    11.9170 ca         1 K2Z      -0.132500
     35 CAJ         -2.2670    12.0120    13.0510 ca         1 K2Z      -0.116000
     36 CAL         -3.2480    11.0460    13.1660 ca         1 K2Z      -0.132500
     37 CAN         -4.1650    10.8670    12.1470 ca         1 K2Z      -0.101500
     38 HAU         -0.3600     0.0310    -1.0210 h1         1 K2Z       0.041950
     39 HAUA        -0.3600    -0.8970     0.4890 h1         1 K2Z       0.041950
     40 HAS          1.8910    -0.8860    -0.5080 h1         1 K2Z       0.040950
     41 HASA         1.8910     0.8860    -0.5080 h1         1 K2Z       0.040950
     42 HAE          3.8140    -0.1070     2.4600 h1         1 K2Z       0.032367
     43 HAEA         3.8140    -0.9730     0.9180 h1         1 K2Z       0.032367
     44 HAEB         3.9050     0.7940     0.9410 h1         1 K2Z       0.032367
     45 HAT          1.8900     1.1500     3.1340 h1         1 K2Z       0.040950
     46 HATA         1.8910     2.0780     1.6240 h1         1 K2Z       0.040950
     47 HAV         -0.3610     0.2970     2.6210 h1         1 K2Z       0.041950
     48 HAVA        -0.3590     2.0690     2.6210 h1         1 K2Z       0.041950
     49 HAR         -2.2910     1.1470    -0.3400 h1         1 K2Z       0.038200
     50 HARA        -2.3740     0.4670     1.2920 h1         1 K2Z       0.038200
     51 HAP         -2.0710     2.7270     2.2490 hc         1 K2Z       0.053700
     52 HAPA        -1.9880     3.4060     0.6180 hc         1 K2Z       0.053700
     53 HAQ         -4.2740     2.5840     0.1570 h1         1 K2Z       0.054700
     54 HAQA        -4.3580     1.9040     1.7880 h1         1 K2Z       0.054700
     55 HNAY        -3.6940     4.6800     1.9650 hn         1 K2Z       0.314500
     56 HBM         -5.6450     6.4180     1.7370 h1         1 K2Z       0.046700
     57 HOAI        -7.7480     6.1200     1.2980 ho         1 K2Z       0.411000
     58 HBJ         -4.7060     5.5540     3.8940 h1         1 K2Z       0.080700
     59 HAO         -6.3810     3.7080     4.1510 hc         1 K2Z       0.061700
     60 HAOA        -7.6130     4.9240     4.5180 hc         1 K2Z       0.061700
     61 HAA         -6.5450     5.5620     6.5340 hc         1 K2Z       0.040700
     62 HAAA        -6.4070     3.7990     6.5180 hc         1 K2Z       0.040700
     63 HAAB        -5.0190     4.7990     6.0680 hc         1 K2Z       0.040700
     64 HNBA        -6.8270     7.6000     3.8240 hn         1 K2Z       0.325500
     65 HA          -6.8200     8.9960     6.1200 h1         1 K2Z       0.101700
     66 HB          -4.4710    10.0160     4.4830 hc         1 K2Z       0.047700
     67 HBA         -6.0850     9.7000     3.8310 hc         1 K2Z       0.047700
     68 HG          -5.4960    11.6160     6.1160 hc         1 K2Z       0.069700
     69 HD2         -4.5510    12.4400     3.9980 hc         1 K2Z       0.034700
     70 HD2A        -5.9790    13.3850     4.4390 hc         1 K2Z       0.034700
     71 HD2B        -6.0920    12.1450     3.1810 hc         1 K2Z       0.034700
     72 HD1         -8.0000    11.2370     4.4370 hc         1 K2Z       0.034700
     73 HD1A        -7.7730    10.5380     6.0460 hc         1 K2Z       0.034700
     74 HD1B        -7.8120    12.2950     5.8420 hc         1 K2Z       0.034700
     75 HN          -4.0560     8.8180     7.1010 hn         1 K2Z       0.346500
     76 HAW         -6.0280    11.0990    10.3080 h1         1 K2Z       0.056200
     77 HAWA        -5.2530    12.3940     9.3850 h1         1 K2Z       0.056200
     78 HAM         -3.0610    13.2330    10.0060 ha         1 K2Z       0.134000
     79 HAK         -1.4310    13.5550    11.8270 ha         1 K2Z       0.132000
     80 HAJ         -1.5500    12.1530    13.8510 ha         1 K2Z       0.131000
     81 HAL         -3.3020    10.4310    14.0560 ha         1 K2Z       0.132000
     82 HAN         -4.9340    10.1090    12.2360 ha         1 K2Z       0.134000
@<TRIPOS>BOND
     1     1     2 1
     2     1     7 1
     3     2     3 1
     4     3     4 1
     5     3     5 1
     6     5     6 1
     7     6     7 1
     8     7     8 1
     9     8     9 1
    10     9    10 1
    11    10    11 1
    12    11    12 1
    13    12    13 2
    14    12    14 1
    15    14    15 1
    16    14    16 1
    17    16    17 1
    18    16    19 1
    19    17    18 1
    20    19    20 1
    21    20    21 2
    22    20    22 1
    23    22    23 1
    24    22    27 1
    25    23    24 1
    26    24    25 1
    27    24    26 1
    28    27    28 1
    29    28    29 2
    30    28    30 1
    31    30    31 1
    32    31    32 1
    33    32    33 ar
    34    32    37 ar
    35    33    34 ar
    36    34    35 ar
    37    35    36 ar
    38    36    37 ar
    39     1    38 1
    40     1    39 1
    41     2    40 1
    42     2    41 1
    43     4    42 1
    44     4    43 1
    45     4    44 1
    46     5    45 1
    47     5    46 1
    48     6    47 1
    49     6    48 1
    50     8    49 1
    51     8    50 1
    52     9    51 1
    53     9    52 1
    54    10    53 1
    55    10    54 1
    56    11    55 1
    57    14    56 1
    58    15    57 1
    59    16    58 1
    60    17    59 1
    61    17    60 1
    62    18    61 1
    63    18    62 1
    64    18    63 1
    65    19    64 1
    66    22    65 1
    67    23    66 1
    68    23    67 1
    69    24    68 1
    70    25    69 1
    71    25    70 1
    72    25    71 1
    73    26    72 1
    74    26    73 1
    75    26    74 1
    76    27    75 1
    77    31    76 1
    78    31    77 1
    79    33    78 1
    80    34    79 1
    81    35    80 1
    82    36    81 1
    83    37    82 1
@<TRIPOS>SUBSTRUCTURE
     1 K2Z         1 TEMP              0 ****  ****    0 ROOT
