@<TRIPOS>MOLECULE
molecule
   61    64     1     0     0
SMALL
bcc


@<TRIPOS>ATOM
      1 C28          0.0000     0.0000     0.0000 c3         1 K30       0.149100
      2 C22          5.7230    -0.1800    -2.2460 c3         1 K30      -0.971700
      3 C18          9.7750    -3.8630     2.3090 ca         1 K30      -0.155000
      4 C17         10.2660    -2.8370     1.5240 ca         1 K30      -0.125500
      5 C19         10.4170    -5.1160     2.3120 ca         1 K30      -0.125500
      6 C16         11.4000    -3.0440     0.7320 ca         1 K30      -0.085500
      7 C20          7.7490    -3.3550     0.5010 ca         1 K30      -0.085500
      8 C7           5.4550    -2.9230   -10.7770 ca         1 K30      -0.159000
      9 C6           6.1690    -3.7530    -9.9180 ca         1 K30      -0.125000
     10 C9           4.9040    -1.4810    -8.9260 ca         1 K30      -0.163000
     11 C27          3.7660     0.0000     0.0000 c3         1 K30      -0.044400
     12 C26          2.3510     0.0000     0.5820 c3         1 K30       0.160800
     13 C2           9.5350    -2.9850    -2.5960 c2         1 K30      -0.256200
     14 C24          1.5480    -1.4050    -1.2230 c3         1 K30       0.136800
     15 C            7.9260    -1.3210    -2.6890 c3         1 K30       0.023200
     16 C14          7.7900    -4.7120    -2.2050 c3         1 K30       0.144400
     17 C15          8.8790    -3.5610    -0.2890 ca         1 K30      -0.197300
     18 C8           4.8230    -1.7870   -10.2810 ca         1 K30       0.136900
     19 C5           6.2500    -3.4480    -8.5630 ca         1 K30       0.104900
     20 C4           5.6170    -2.3120    -8.0660 ca         1 K30      -0.029800
     21 C12          4.0000    -1.3070    -0.7620 c3         1 K30      -0.853300
     22 C3           9.2730    -1.8150    -3.1500 ce         1 K30      -0.052400
     23 C23          2.9400    -1.4460    -1.8590 c3         1 K30       0.211600
     24 C10          6.2010    -2.2890    -1.1240 c          1 K30      -0.616900
     25 C1           8.3920    -3.3960    -1.7050 c3         1 K30       0.162900
     26 N25          1.3730    -0.1340    -0.5050 n3         1 K30      -0.703600
     27 N            7.3840    -2.3290    -1.7690 n          1 K30      -0.218800
     28 N11          5.3330    -1.2870    -1.3710 n          1 K30       0.876200
     29 O            5.4730    -1.3600    -1.2770 o          1 K30       1.009900
     30 F            6.9000    -4.2970    -7.7080 f          1 K30      -0.133900
     31 F29          3.0690    -0.3920    -2.7690 f          1 K30      -0.237300
     32 H28         -0.6350     0.4010    -0.7810 h1         1 K30       0.033033
     33 H28A        -0.0080     0.6700     0.8510 h1         1 K30       0.033033
     34 H28B        -0.3700    -0.9720     0.3020 h1         1 K30       0.033033
     35 H22          5.4990    -0.4360    -3.2740 h1         1 K30       0.083700
     36 H22A         5.1720     0.7110    -1.9680 h1         1 K30       0.083700
     37 H22B         6.7850     0.0060    -2.1420 h1         1 K30       0.083700
     38 H18          8.8970    -3.7030     2.9230 ha         1 K30       0.156000
     39 H17          9.7720    -1.8730     1.5210 ha         1 K30       0.140500
     40 H19         10.0330    -5.9200     2.9280 ha         1 K30       0.140500
     41 H16         11.7850    -2.2400     0.1170 ha         1 K30       0.168000
     42 H20          7.2190    -3.8530    -0.3010 ha         1 K30       0.168000
     43 H7           5.3920    -3.1610   -11.8320 ha         1 K30       0.162000
     44 H6           6.6610    -4.6370   -10.3050 ha         1 K30       0.166000
     45 H9           4.4110    -0.5970    -8.5400 ha         1 K30       0.174000
     46 H27          4.4800    -0.0180     0.8150 hc         1 K30       0.049200
     47 H27A         3.9070     0.9050    -0.5780 hc         1 K30       0.049200
     48 H26          2.2890    -0.7580     1.3540 h1         1 K30       0.033700
     49 H26A         2.1520     0.9710     1.0190 h1         1 K30       0.033700
     50 H24          0.8040    -1.3870    -2.0100 h1         1 K30       0.043700
     51 H24A         1.4110    -2.2950    -0.6220 h1         1 K30       0.043700
     52 H            7.2470    -1.2440    -3.5290 h1         1 K30       0.101700
     53 HA           8.0280    -0.3650    -2.1880 h1         1 K30       0.101700
     54 H14          7.7940    -5.4390    -1.4010 h1         1 K30       0.055200
     55 H14A         8.3780    -5.0870    -3.0330 h1         1 K30       0.055200
     56 H12          3.9220    -2.1420    -0.0770 h1         1 K30       0.113700
     57 H23          3.0740    -2.3920    -2.3710 h1         1 K30       0.046700
     58 HO21         6.2220    -5.1330    -3.2830 ho         1 K30       0.419000
     59 H2          10.2360    -3.6620    -3.0680 ha         1 K30       0.180000
     60 O21          6.4550    -4.4890    -2.6350 oh         1 K30      -0.598800
     61 F13          4.1160    -0.9730   -11.1260 f          1 K30      -0.128900
@<TRIPOS>BOND
     1     1    26 1
     2     1    32 1
     3     1    33 1
     4     1    34 1
     5     2    35 1
     6     2    36 1
     7     2    37 1
     8     3    38 1
     9     4     3 ar
    10     4    39 1
    11     5     3 ar
    12     5    40 1
    13     6     4 ar
    14     6    41 1
    15     7     5 ar
    16     7    42 1
    17     8    18 ar
    18     8     9 ar
    19     8    43 1
    20     9    19 ar
    21     9    44 1
    22    10    20 ar
    23    10    45 1
    24    11    46 1
    25    11    47 1
    26    12    11 1
    27    12    48 1
    28    12    49 1
    29    13    25 1
    30    14    23 1
    31    14    26 1
    32    14    50 1
    33    14    51 1
    34    15    27 1
    35    15    52 1
    36    15    53 1
    37    16    25 1
    38    16    54 1
    39    16    55 1
    40    17     6 ar
    41    17     7 ar
    42    18    10 ar
    43    19    20 ar
    44    19    30 1
    45    20    22 1
    46    21    11 1
    47    21    28 1
    48    21    56 1
    49    22    13 2
    50    22    15 1
    51    23    21 1
    52    23    31 1
    53    23    57 1
    54    24    29 2
    55    25    17 1
    56    26    12 1
    57    27    24 1
    58    27    25 1
    59    28     2 1
    60    28    24 1
    61    60    16 1
    62    60    58 1
    63    61    18 1
    64    13    59 1
@<TRIPOS>SUBSTRUCTURE
     1 K30         1 TEMP              0 ****  ****    0 ROOT
