@<TRIPOS>MOLECULE
molecule
   27    28     1     0     0
SMALL
bcc


@<TRIPOS>ATOM
      1 N1           0.0000     0.0000     0.0000 na         1 K31      -0.045600
      2 C4           0.6860    -0.0010     2.0800 cc         1 K31      -0.263300
      3 C5           0.6980    -0.0010     3.5640 ca         1 K31      -0.084000
      4 C6           0.7010     1.2010     4.2640 ca         1 K31      -0.071000
      5 C7           0.7130     1.1960     5.6440 ca         1 K31      -0.192000
      6 C8           0.7200    -0.0010     6.3370 ca         1 K31      -0.082000
      7 C10          0.6990    -1.2130     4.2670 ca         1 K31       0.215600
      8 N            1.4000     0.0000     0.0000 nc         1 K31      -0.520800
      9 C1           1.8160     0.0000     1.2390 cd         1 K31       0.356600
     10 C2          -0.4200    -0.0010     1.2820 cd         1 K31      -0.060600
     11 C3          -1.8540    -0.0020     1.7490 c3         1 K31      -0.025800
     12 C9           0.7160    -1.2030     5.6530 ca         1 K31      -0.216000
     13 N2           0.6890    -2.4250     3.5740 nv         1 K31      -0.918200
     14 H1          -0.5870     0.0000    -0.8100 hn         1 K31       0.327700
     15 H2           0.6960     2.1410     3.7250 ha         1 K31       0.132000
     16 H3           0.7160     2.1340     6.1870 ha         1 K31       0.126000
     17 H4           0.7310     0.0020     7.4200 ha         1 K31       0.125000
     18 H5           3.9030     0.0400     0.8230 hc         1 K31       0.051700
     19 H6           3.4560    -0.9030     2.2510 hc         1 K31       0.051700
     20 H7           3.4360     0.8640     2.3170 hc         1 K31       0.051700
     21 H8          -2.0160     0.8330     2.4190 hc         1 K31       0.052700
     22 H9          -2.0640    -0.9290     2.2690 hc         1 K31       0.052700
     23 H10         -2.5120     0.0890     0.8930 hc         1 K31       0.052700
     24 H11          0.7190    -2.1380     6.2010 ha         1 K31       0.127000
     25 H12          0.6110    -3.2870     4.0760 hn         1 K31       0.431800
     26 H13          0.7380    -2.4300     2.5740 hn         1 K31       0.431800
     27 C            3.2540     0.0000     1.6890 c3         1 K31      -0.109400
@<TRIPOS>BOND
     1     1     8 1
     2     1    10 1
     3     8     9 2
     4    11    10 1
     5    10     2 2
     6     9     2 1
     7     9    27 1
     8     2     3 1
     9     3     4 ar
    10     3     7 ar
    11    13     7 1
    12     4     5 ar
    13     7    12 ar
    14     5     6 ar
    15    12     6 ar
    16     1    14 1
    17     4    15 1
    18     5    16 1
    19     6    17 1
    20    27    18 1
    21    27    19 1
    22    27    20 1
    23    11    21 1
    24    11    22 1
    25    11    23 1
    26    12    24 1
    27    13    25 1
    28    13    26 1
@<TRIPOS>SUBSTRUCTURE
     1 K31         1 TEMP              0 ****  ****    0 ROOT
