@<TRIPOS>MOLECULE
K32
   16    17     1     0     0
SMALL
bcc


@<TRIPOS>ATOM
      1 Br1          0.0000     0.0000     0.0000 br         1 K32      -0.068100
      2 C5           1.8980     0.0000     0.0000 ca         1 K32       0.043100
      3 C2           2.6930     0.0000     1.1500 ca         1 K32       0.062100
      4 Br2          1.8270     0.0030     2.8680 br         1 K32      -0.073600
      5 C7           2.5570    -0.0000    -1.2080 ca         1 K32      -0.116400
      6 N14          2.0360    -0.0010    -2.5020 ns         1 K32      -0.025100
      7 C13          3.1180    -0.0030    -3.4290 c          1 K32       0.592500
      8 O10          3.0420    -0.0040    -4.6490 o          1 K32      -0.649500
      9 N6           4.3050    -0.0030    -2.6430 ns         1 K32      -0.025100
     10 C8           3.9460    -0.0020    -1.2940 ca         1 K32      -0.116400
     11 C4           4.7500    -0.0020    -0.1770 ca         1 K32       0.043100
     12 Br3          6.6340    -0.0030    -0.4100 br         1 K32      -0.068100
     13 C3           4.1030    -0.0000     1.0640 ca         1 K32       0.062100
     14 Br4          5.1740    -0.0010     2.6600 br         1 K32      -0.073600
     15 H14          1.0640     0.0000    -2.7400 hn         1 K32       0.205500
     16 H6           5.2400    -0.0040    -2.9980 hn         1 K32       0.205500
@<TRIPOS>BOND
     1     1     2 1   
     2     2     3 ar  
     3     2     5 ar  
     4     3     4 1   
     5     3    13 ar  
     6     5     6 1   
     7     5    10 ar  
     8     6     7 1   
     9     6    15 1   
    10     7     8 2   
    11     7     9 1   
    12     9    10 1   
    13     9    16 1   
    14    10    11 ar  
    15    11    12 1   
    16    11    13 ar  
    17    13    14 1   
@<TRIPOS>SUBSTRUCTURE
     1 K32         1 TEMP              0 ****  ****    0 ROOT
