@<TRIPOS>MOLECULE
molecule
   14    15     1     0     0
SMALL
bcc


@<TRIPOS>ATOM
      1 N1           0.0000     0.0000     0.0000 na         1 K34      -0.171400
      2 N3           1.7560     0.0000     1.2570 nc         1 K34      -0.712000
      3 C4           0.7020     0.0050     2.0660 cc         1 K34       0.569900
      4 N            3.5270    -0.0020    -1.1750 nc         1 K34      -0.620000
      5 C            4.1370    -0.0020    -2.3350 cc         1 K34       0.365200
      6 C1           3.3420    -0.0030    -3.4130 cd         1 K34      -0.159400
      7 C2           2.2240    -0.0020    -1.1900 cd         1 K34       0.433400
      8 C3           1.3540     0.0000     0.0000 cd         1 K34       0.421500
      9 N2          -0.3920     0.0070     1.3490 nd         1 K34      -0.534800
     10 S            1.6670    -0.0020    -2.8620 ss         1 K34      -0.249300
     11 H1          -0.6010    -0.0000    -0.8000 hn         1 K34       0.333700
     12 H2           0.7420     0.0070     3.1490 h5         1 K34       0.084100
     13 H4           3.6710    -0.0040    -4.4450 h4         1 K34       0.187000
     14 H3           5.2170    -0.0030    -2.4180 h4         1 K34       0.052100
@<TRIPOS>BOND
     1     5     4 1
     2     5     6 2
     3     4     7 2
     4     2     3 1
     5     2     8 2
     6     6    10 1
     7     7     8 1
     8     7    10 1
     9     3     9 2
    10     8     1 1
    11     9     1 1
    12     1    11 1
    13     3    12 1
    14     5    14 1
    15     6    13 1
@<TRIPOS>SUBSTRUCTURE
     1 K34         1 TEMP              0 ****  ****    0 ROOT
