@<TRIPOS>MOLECULE
molecule
   42    42     1     0     0
SMALL
bcc


@<TRIPOS>ATOM
      1 N1           0.0000     0.0000     0.0000 ns         1 K35      -0.594900
      2 C6           1.4650     0.0000     0.0000 c3         1 K35       0.108700
      3 C7           1.9760     0.0000     1.4420 c3         1 K35       0.122100
      4 C8           1.4660    -1.2490     2.1640 c3         1 K35       0.128100
      5 O2           1.9430    -1.2490     3.5100 oh         1 K35      -0.592800
      6 C11          1.9740    -1.2490    -0.7220 c3         1 K35      -0.081700
      7 C12          1.4640    -1.2490    -2.1640 c3         1 K35       0.149400
      8 O5           2.0340    -2.3530    -2.8710 oh         1 K35      -0.585800
      9 C10          1.4650    -2.4990     0.0000 c3         1 K35       0.152100
     10 O4           1.9410    -3.6650    -0.6740 oh         1 K35      -0.573800
     11 C9           1.9750    -2.4980     1.4420 c3         1 K35       0.115100
     12 O3           1.5000    -3.6650     2.1170 oh         1 K35      -0.614800
     13 O1           3.4050    -0.0000     1.4410 oh         1 K35      -0.592800
     14 H1          -0.5000    -0.8590    -0.1190 hn         1 K35       0.320500
     15 H4           1.8300     0.8830    -0.5100 h1         1 K35       0.091700
     16 H5           1.6110     0.8830     1.9520 h1         1 K35       0.059700
     17 H6           0.3830    -1.2480     2.1600 h1         1 K35       0.043700
     18 H7           1.2150    -1.1480     4.1010 ho         1 K35       0.404000
     19 H8           3.0580    -1.2490    -0.7170 hc         1 K35       0.106700
     20 H9           1.7510    -0.3240    -2.6480 h1         1 K35       0.020700
     21 H10          0.3850    -1.3380    -2.1650 h1         1 K35       0.020700
     22 H11          2.0140    -2.1770    -3.7970 ho         1 K35       0.395000
     23 H12          0.3820    -2.4950     0.0030 h1         1 K35       0.022700
     24 H13          1.3120    -4.3610    -0.5790 ho         1 K35       0.405000
     25 H14          3.0590    -2.4940     1.4390 h1         1 K35       0.080700
     26 H15          2.2320    -4.1510     2.4590 ho         1 K35       0.416000
     27 H16          3.7190     0.7820     1.8630 ho         1 K35       0.412000
     28 C1          -0.6740     1.1630     0.1070 c          1 K35       0.654100
     29 C2          -2.1810     1.1620     0.1150 c3         1 K35      -0.158400
     30 C3          -2.6910     2.5980     0.2460 c3         1 K35      -0.066400
     31 C4          -4.2210     2.5980     0.2530 c3         1 K35      -0.087400
     32 C5          -4.7310     4.0340     0.3840 c3         1 K35      -0.090100
     33 O6          -0.0680     2.2090     0.1990 o          1 K35      -0.608100
     34 H2          -2.5370     0.5740     0.9520 hc         1 K35       0.059700
     35 H3          -2.5460     0.7320    -0.8100 hc         1 K35       0.059700
     36 H17         -2.3330     3.1860    -0.5910 hc         1 K35       0.059200
     37 H18         -2.3250     3.0280     1.1710 hc         1 K35       0.059200
     38 H19         -4.5780     2.0100     1.0900 hc         1 K35       0.037700
     39 H20         -4.5860     2.1680    -0.6720 hc         1 K35       0.037700
     40 H21         -4.3730     4.6220    -0.4520 hc         1 K35       0.035367
     41 H22         -4.3660     4.4640     1.3090 hc         1 K35       0.035367
     42 H23         -5.8140     4.0340     0.3890 hc         1 K35       0.035367
@<TRIPOS>BOND
     1     8     7 1
     2     7     6 1
     3    10     9 1
     4     6     9 1
     5     6     2 1
     6     9    11 1
     7     2     1 1
     8     2     3 1
     9    11    12 1
    10    11     4 1
    11     3     4 1
    12     4     5 1
    13     3    13 1
    14     1    14 1
    15     2    15 1
    16     3    16 1
    17     4    17 1
    18     5    18 1
    19     6    19 1
    20     7    20 1
    21     7    21 1
    22     8    22 1
    23     9    23 1
    24    10    24 1
    25    11    25 1
    26    12    26 1
    27    13    27 1
    28     1    28 1
    29    28    29 1
    30    29    30 1
    31    30    31 1
    32    31    32 1
    33    28    33 2
    34    29    34 1
    35    29    35 1
    36    30    36 1
    37    30    37 1
    38    31    38 1
    39    31    39 1
    40    32    40 1
    41    32    41 1
    42    32    42 1
@<TRIPOS>SUBSTRUCTURE
     1 K35         1 TEMP              0 ****  ****    0 ROOT
