@<TRIPOS>MOLECULE
K35
   42    42     1     0     0
SMALL
bcc


@<TRIPOS>ATOM
      1 N1           0.0000     0.0000     0.0000 ns         1 K35      -0.217900
      2 C6           1.4650     0.0000     0.0000 c3         1 K35       0.016700
      3 C7           1.9760     0.0000     1.4420 c3         1 K35       0.160100
      4 C8           1.4660    -1.2490     2.1640 c3         1 K35       0.158100
      5 O2           1.9430    -1.2490     3.5100 oh         1 K35      -0.571800
      6 C11          1.9740    -1.2490    -0.7220 c3         1 K35      -0.082700
      7 C12          1.4640    -1.2490    -2.1640 c3         1 K35       0.229400
      8 O5           2.0340    -2.3530    -2.8710 oh         1 K35      -0.566800
      9 C10          1.4650    -2.4990     0.0000 c3         1 K35       0.185100
     10 O4           1.9410    -3.6650    -0.6740 oh         1 K35      -0.556800
     11 C9           1.9750    -2.4980     1.4420 c3         1 K35       0.145100
     12 O3           1.5000    -3.6650     2.1170 oh         1 K35      -0.594800
     13 O1           3.4050    -0.0000     1.4410 oh         1 K35      -0.570800
     14 H1          -0.5000    -0.8590    -0.1190 hn         1 K35       0.188500
     15 H4           1.8300     0.8830    -0.5100 h1         1 K35       0.065700
     16 H5           1.6110     0.8830     1.9520 h1         1 K35       0.024700
     17 H6           0.3830    -1.2480     2.1600 h1         1 K35       0.008700
     18 H7           1.2150    -1.1480     4.1010 ho         1 K35       0.389000
     19 H8           3.0580    -1.2490    -0.7170 hc         1 K35       0.077700
     20 H9           1.7510    -0.3240    -2.6480 h1         1 K35      -0.015300
     21 H10          0.3850    -1.3380    -2.1650 h1         1 K35      -0.015300
     22 H11          2.0140    -2.1770    -3.7970 ho         1 K35       0.381000
     23 H12          0.3820    -2.4950     0.0030 h1         1 K35      -0.003300
     24 H13          1.3120    -4.3610    -0.5790 ho         1 K35       0.390000
     25 H14          3.0590    -2.4940     1.4390 h1         1 K35       0.044700
     26 H15          2.2320    -4.1510     2.4590 ho         1 K35       0.403000
     27 H16          3.7190     0.7820     1.8630 ho         1 K35       0.397000
     28 C1          -0.6740     1.1630     0.1070 c          1 K35       0.573100
     29 C2          -2.1810     1.1620     0.1150 c3         1 K35      -0.097400
     30 C3          -2.6910     2.5980     0.2460 c3         1 K35      -0.016400
     31 C4          -4.2210     2.5980     0.2530 c3         1 K35      -0.031400
     32 C5          -4.7310     4.0340     0.3840 c3         1 K35       0.008900
     33 O6          -0.0680     2.2090     0.1990 o          1 K35      -0.646100
     34 H2          -2.5370     0.5740     0.9520 hc         1 K35       0.027200
     35 H3          -2.5460     0.7320    -0.8100 hc         1 K35       0.027200
     36 H17         -2.3330     3.1860    -0.5910 hc         1 K35       0.030200
     37 H18         -2.3250     3.0280     1.1710 hc         1 K35       0.030200
     38 H19         -4.5780     2.0100     1.0900 hc         1 K35       0.008700
     39 H20         -4.5860     2.1680    -0.6720 hc         1 K35       0.008700
     40 H21         -4.3730     4.6220    -0.4520 hc         1 K35       0.001367
     41 H22         -4.3660     4.4640     1.3090 hc         1 K35       0.001367
     42 H23         -5.8140     4.0340     0.3890 hc         1 K35       0.001367
@<TRIPOS>BOND
     1     1     2 1   
     2     1    14 1   
     3     1    28 1   
     4     2     3 1   
     5     2     6 1   
     6     2    15 1   
     7     3     4 1   
     8     3    13 1   
     9     3    16 1   
    10     4     5 1   
    11     4    11 1   
    12     4    17 1   
    13     5    18 1   
    14     6     7 1   
    15     6     9 1   
    16     6    19 1   
    17     7     8 1   
    18     7    20 1   
    19     7    21 1   
    20     8    22 1   
    21     9    10 1   
    22     9    11 1   
    23     9    23 1   
    24    10    24 1   
    25    11    12 1   
    26    11    25 1   
    27    12    26 1   
    28    13    27 1   
    29    28    29 1   
    30    28    33 2   
    31    29    30 1   
    32    29    34 1   
    33    29    35 1   
    34    30    31 1   
    35    30    36 1   
    36    30    37 1   
    37    31    32 1   
    38    31    38 1   
    39    31    39 1   
    40    32    40 1   
    41    32    41 1   
    42    32    42 1   
@<TRIPOS>SUBSTRUCTURE
     1 K35         1 TEMP              0 ****  ****    0 ROOT
