@<TRIPOS>MOLECULE
molecule
   19    20     1     0     0
SMALL
bcc


@<TRIPOS>ATOM
      1 C1           0.0000     0.0000     0.0000 ca         1 K37       0.022100
      2 C2           1.3890     0.0000     0.0000 ca         1 K37      -0.000900
      3 C3           2.0880     0.0000     1.1880 ca         1 K37       0.059100
      4 C4          -0.6990     0.0000     1.1920 ca         1 K37       0.012100
      5 N5          -0.4010    -0.0030     3.7260 na         1 K37      -0.238300
      6 C6          -0.0100    -0.0020     2.3960 ca         1 K37      -0.064200
      7 C7           1.3930    -0.0020     2.4020 ca         1 K37       0.131400
      8 N8           1.7890     0.0020     3.7020 nc         1 K37      -0.605100
      9 C9           0.7360    -0.0040     4.4820 cd         1 K37       0.463700
     10 S            0.7800    -0.0050     6.2440 ss         1 K37      -0.173300
     11 C11          2.5700    -0.0060     6.5130 c3         1 K37      -0.007000
     12 Br10        -2.5900     0.0010     1.1800 br         1 K37      -0.061100
     13 Br11        -0.9390     0.0020    -1.6410 br         1 K37      -0.032100
     14 Br12         2.3270     0.0020    -1.6410 br         1 K37      -0.034100
     15 Br13         3.9790     0.0010     1.1770 br         1 K37      -0.035100
     16 HN5         -1.3420    -0.0070     4.0680 hn         1 K37       0.324700
     17 H111         2.7750    -0.0090     7.5770 h1         1 K37       0.079367
     18 H112         3.0030    -0.8900     6.0600 h1         1 K37       0.079367
     19 H113         3.0040     0.8790     6.0640 h1         1 K37       0.079367
@<TRIPOS>BOND
     1     1     2 ar
     2     1     4 ar
     3     1    13 1
     4     2     3 ar
     5     2    14 1
     6     3     7 ar
     7     3    15 1
     8     4     6 ar
     9     4    12 1
    10     5     6 1
    11     5     9 1
    12     5    16 1
    13     6     7 ar
    14     7     8 1
    15     8     9 2
    16     9    10 1
    17    10    11 1
    18    11    17 1
    19    11    18 1
    20    11    19 1
@<TRIPOS>SUBSTRUCTURE
     1 K37         1 TEMP              0 ****  ****    0 ROOT
