@<TRIPOS>MOLECULE
K37
   19    20     1     0     0
SMALL
bcc


@<TRIPOS>ATOM
      1 C1         -0.0450   -0.0000   -0.0260 ca        1 K37      0.020100
      2 C2          1.3670    0.0010   -0.0600 ca        1 K37     -0.011900
      3 C3          2.1300   -0.0000    1.1100 ca        1 K37      0.050100
      4 C4         -0.7450   -0.0010    1.1810 ca        1 K37     -0.007900
      5 N5         -0.3600   -0.0030    3.7080 na        1 K37     -0.254300
      6 C6          0.0050   -0.0020    2.3620 ca        1 K37     -0.044200
      7 C7          1.4580   -0.0010    2.3400 ca        1 K37      0.109400
      8 N8          1.9420   -0.0020    3.6580 nc        1 K37     -0.570100
      9 C9          0.8420   -0.0030    4.4510 cd        1 K37      0.414700
     10 S           0.8150   -0.0050    6.1460 ss        1 K37     -0.102300
     11 C11         2.5080   -0.0050    6.5980 c3        1 K37     -0.054000
     12 BR10       -2.6080   -0.0020    1.2560 br        1 K37     -0.046100
     13 BR11       -1.0080    0.0010   -1.6290 br        1 K37     -0.030100
     14 BR12        2.2400    0.0020   -1.7140 br        1 K37     -0.033100
     15 BR13        3.9920    0.0010    1.0650 br        1 K37     -0.022100
     16 HN5        -1.2780   -0.0040    4.0700 hn        1 K37      0.325700
     17 H111        3.0460    0.8970    6.2300 h1        1 K37      0.085367
     18 H112        3.0450   -0.9070    6.2280 h1        1 K37      0.085367
     19 H113        2.5030   -0.0070    7.7140 h1        1 K37      0.085367
@<TRIPOS>BOND
     1    1    2 ar  
     2    1    4 ar  
     3    1   13 1   
     4    2    3 ar  
     5    2   14 1   
     6    3    7 ar  
     7    3   15 1   
     8    4    6 ar  
     9    4   12 1   
    10    5    6 1   
    11    5    9 1   
    12    5   16 1   
    13    6    7 ar  
    14    7    8 1   
    15    8    9 2   
    16    9   10 1   
    17   10   11 1   
    18   11   17 1   
    19   11   18 1   
    20   11   19 1   
@<TRIPOS>SUBSTRUCTURE
     1 K37         1 TEMP              0 ****  ****    0 ROOT
