@<TRIPOS>MOLECULE
K3A
   19    19     1     0     0
SMALL
bcc


@<TRIPOS>ATOM
      1 N1           0.0000     0.0000     0.0000 na         1 K3A       0.461400
      2 C4           1.3500     0.0000     0.0000 cc         1 K3A      -0.249600
      3 C5           2.2370    -0.0000    -1.2180 c3         1 K3A       0.102200
      4 N            0.6180    -0.0000     3.5080 ns         1 K3A      -0.072400
      5 C            1.7770    -0.0000     5.6940 c3         1 K3A      -0.068100
      6 O            2.8360    -0.0000     3.5850 o          1 K3A      -0.632100
      7 C1           1.7840    -0.0000     4.1870 c          1 K3A       0.558100
      8 C2           0.6250     0.0000     2.1070 cd         1 K3A       0.344200
      9 C3           1.7650     0.0000     1.2870 cd         1 K3A      -0.331300
     10 N2          -0.4340     0.0000     1.3310 nc         1 K3A      -0.713800
     11 H1          -0.5880    -0.0000    -0.8100 hn         1 K3A       0.144700
     12 H2           3.0230     0.7350    -1.0920 hc         1 K3A       0.010033
     13 H3           1.6480     0.2470    -2.0930 hc         1 K3A       0.010033
     14 H4           2.6770    -0.9820    -1.3440 hc         1 K3A       0.010033
     15 H5          -0.2500     0.0150     4.0050 hn         1 K3A       0.168500
     16 H6           2.7970    -0.0110     6.0600 hc         1 K3A       0.024367
     17 H7           1.2740     0.8900     6.0530 hc         1 K3A       0.024367
     18 H8           1.2560    -0.8790     6.0530 hc         1 K3A       0.024367
     19 H9           2.7940    -0.0000     1.6250 ha         1 K3A       0.187000
@<TRIPOS>BOND
     1     1     2 1   
     2     1    10 1   
     3     1    11 1   
     4     2     3 1   
     5     2     9 2   
     6     3    12 1   
     7     3    13 1   
     8     3    14 1   
     9     4     7 1   
    10     4     8 1   
    11     4    15 1   
    12     5     7 1   
    13     5    16 1   
    14     5    17 1   
    15     5    18 1   
    16     6     7 2   
    17     8     9 1   
    18     8    10 2   
    19     9    19 1   
@<TRIPOS>SUBSTRUCTURE
     1 K3A         1 TEMP              0 ****  ****    0 ROOT
