@<TRIPOS>MOLECULE
molecule
   19    19     1     0     0
SMALL
bcc


@<TRIPOS>ATOM
      1 N1           0.0000     0.0000     0.0000 na         1 K3A      -0.041600
      2 C4           1.3500     0.0000     0.0000 cc         1 K3A      -0.070600
      3 C5           2.2370    -0.0000    -1.2180 c3         1 K3A      -0.026800
      4 N            0.6180    -0.0000     3.5080 ns         1 K3A      -0.533400
      5 C            1.7770    -0.0000     5.6940 c3         1 K3A      -0.169100
      6 O            2.8360    -0.0000     3.5850 o          1 K3A      -0.590100
      7 C1           1.7840    -0.0000     4.1870 c          1 K3A       0.665100
      8 C2           0.6250     0.0000     2.1070 cd         1 K3A       0.465200
      9 C3           1.7650     0.0000     1.2870 cd         1 K3A      -0.340300
     10 N2          -0.4340     0.0000     1.3310 nc         1 K3A      -0.562800
     11 H1          -0.5880    -0.0000    -0.8100 hn         1 K3A       0.328700
     12 H2           3.0230     0.7350    -1.0920 hc         1 K3A       0.051367
     13 H3           1.6480     0.2470    -2.0930 hc         1 K3A       0.051367
     14 H4           2.6770    -0.9820    -1.3440 hc         1 K3A       0.051367
     15 H5          -0.2500     0.0150     4.0050 hn         1 K3A       0.331500
     16 H6           2.7970    -0.0110     6.0600 hc         1 K3A       0.064700
     17 H7           1.2740     0.8900     6.0530 hc         1 K3A       0.064700
     18 H8           1.2560    -0.8790     6.0530 hc         1 K3A       0.064700
     19 H9           2.7940    -0.0000     1.6250 ha         1 K3A       0.196000
@<TRIPOS>BOND
     1     3     2 1
     2     2     9 2
     3     2     1 1
     4     9     8 1
     5     1    10 1
     6     8    10 2
     7     8     4 1
     8     6     7 2
     9     4     7 1
    10     7     5 1
    11     1    11 1
    12     3    12 1
    13     3    13 1
    14     3    14 1
    15     4    15 1
    16     5    16 1
    17     5    17 1
    18     5    18 1
    19     9    19 1
@<TRIPOS>SUBSTRUCTURE
     1 K3A         1 TEMP              0 ****  ****    0 ROOT
