@<TRIPOS>MOLECULE
molecule
   31    31     1     0     0
SMALL
bcc


@<TRIPOS>ATOM
      1 N1           0.0000     0.0000     0.0000 n          1 K3D      -0.513800
      2 C4          -0.2180    -1.0670     2.1830 c3         1 K3D       0.085500
      3 C5           1.9600     0.0000     1.4530 c3         1 K3D       0.085500
      4 C6           1.4700     0.0000     0.0000 c3         1 K3D       0.097000
      5 C8           3.4440    -2.0120     2.8300 c3         1 K3D      -0.170100
      6 N           -2.0300     0.8830    -0.7430 ns         1 K3D      -0.607900
      7 C           -4.2640     1.5540    -1.4750 c3         1 K3D      -0.113100
      8 O           -0.0930     1.8750    -1.1870 o          1 K3D      -0.659100
      9 C1          -2.7660     1.8550    -1.5540 c3         1 K3D       0.126000
     10 C2          -0.6860     0.9530    -0.6620 c          1 K3D       0.788100
     11 C3          -0.7080    -1.0610     0.7300 c3         1 K3D       0.097000
     12 N2           1.2510    -1.0670     2.1830 n          1 K3D      -0.496800
     13 O1           1.3410    -2.8960     3.4360 o          1 K3D      -0.612100
     14 H1          -0.5810    -0.1820     2.6920 h1         1 K3D       0.064700
     15 H2          -0.5810    -1.9560     2.6850 h1         1 K3D       0.064700
     16 H3           3.0260    -0.1890     1.4770 h1         1 K3D       0.064700
     17 H4           1.7430     0.9580     1.9100 h1         1 K3D       0.064700
     18 H5           1.8330     0.8870    -0.5050 h1         1 K3D       0.060700
     19 H6           1.8330    -0.8870    -0.5050 h1         1 K3D       0.060700
     20 H7           3.8160    -2.7960     3.4780 hc         1 K3D       0.061700
     21 H8           3.8210    -2.1640     1.8250 hc         1 K3D       0.061700
     22 H9           3.7790    -1.0500     3.1990 hc         1 K3D       0.061700
     23 H10         -2.5220     0.1510    -0.2700 hn         1 K3D       0.310500
     24 H11         -4.5910     1.6170    -0.4440 hc         1 K3D       0.042367
     25 H12         -4.4520     0.5570    -1.8540 hc         1 K3D       0.042367
     26 H13         -4.8090     2.2760    -2.0710 hc         1 K3D       0.042367
     27 H14         -2.4380     1.7890    -2.5840 h1         1 K3D       0.052700
     28 H15         -2.5780     2.8540    -1.1780 h1         1 K3D       0.052700
     29 H16         -0.4970    -2.0200     0.2720 h1         1 K3D       0.060700
     30 H17         -1.7740    -0.8680     0.7070 h1         1 K3D       0.060700
     31 C7           1.9370    -2.0250     2.8380 c          1 K3D       0.662100
@<TRIPOS>BOND
     1     8    10 2
     2     9     6 1
     3     9     7 1
     4    11     2 1
     5    11     1 1
     6    10     6 1
     7    10     1 1
     8     5    31 1
     9     2    12 1
    10     1     4 1
    11    12    31 1
    12    12     3 1
    13    31    13 2
    14     4     3 1
    15     2    14 1
    16     2    15 1
    17     3    16 1
    18     3    17 1
    19     4    18 1
    20     4    19 1
    21     5    20 1
    22     5    21 1
    23     5    22 1
    24     6    23 1
    25     7    24 1
    26     7    25 1
    27     7    26 1
    28     9    27 1
    29     9    28 1
    30    11    29 1
    31    11    30 1
@<TRIPOS>SUBSTRUCTURE
     1 K3D         1 TEMP              0 ****  ****    0 ROOT
