@<TRIPOS>MOLECULE
K3D
   31    31     1     0     0
SMALL
bcc


@<TRIPOS>ATOM
      1 N1           0.0000     0.0000     0.0000 n          1 K3D      -0.186800
      2 C4          -0.2180    -1.0670     2.1830 c3         1 K3D       0.030500
      3 C5           1.9600     0.0000     1.4530 c3         1 K3D       0.030500
      4 C6           1.4700     0.0000     0.0000 c3         1 K3D       0.041500
      5 C8           3.4440    -2.0120     2.8300 c3         1 K3D      -0.072100
      6 N           -2.0300     0.8830    -0.7430 ns         1 K3D      -0.236900
      7 C           -4.2640     1.5540    -1.4750 c3         1 K3D      -0.009100
      8 O           -0.0930     1.8750    -1.1870 o          1 K3D      -0.703100
      9 C1          -2.7660     1.8550    -1.5540 c3         1 K3D       0.067000
     10 C2          -0.6860     0.9530    -0.6620 c          1 K3D       0.602100
     11 C3          -0.7080    -1.0610     0.7300 c3         1 K3D       0.041500
     12 N2           1.2510    -1.0670     2.1830 n          1 K3D      -0.164800
     13 O1           1.3410    -2.8960     3.4360 o          1 K3D      -0.648100
     14 H1          -0.5810    -0.1820     2.6920 h1         1 K3D       0.037950
     15 H2          -0.5810    -1.9560     2.6850 h1         1 K3D       0.037950
     16 H3           3.0260    -0.1890     1.4770 h1         1 K3D       0.037950
     17 H4           1.7430     0.9580     1.9100 h1         1 K3D       0.037950
     18 H5           1.8330     0.8870    -0.5050 h1         1 K3D       0.034200
     19 H6           1.8330    -0.8870    -0.5050 h1         1 K3D       0.034200
     20 H7           3.8160    -2.7960     3.4780 hc         1 K3D       0.025700
     21 H8           3.8210    -2.1640     1.8250 hc         1 K3D       0.025700
     22 H9           3.7790    -1.0500     3.1990 hc         1 K3D       0.025700
     23 H10         -2.5220     0.1510    -0.2700 hn         1 K3D       0.180500
     24 H11         -4.5910     1.6170    -0.4440 hc         1 K3D       0.007367
     25 H12         -4.4520     0.5570    -1.8540 hc         1 K3D       0.007367
     26 H13         -4.8090     2.2760    -2.0710 hc         1 K3D       0.007367
     27 H14         -2.4380     1.7890    -2.5840 h1         1 K3D       0.023700
     28 H15         -2.5780     2.8540    -1.1780 h1         1 K3D       0.023700
     29 H16         -0.4970    -2.0200     0.2720 h1         1 K3D       0.034200
     30 H17         -1.7740    -0.8680     0.7070 h1         1 K3D       0.034200
     31 C7           1.9370    -2.0250     2.8380 c          1 K3D       0.591100
@<TRIPOS>BOND
     1     1     4 1   
     2     1    10 1   
     3     1    11 1   
     4     2    11 1   
     5     2    12 1   
     6     2    14 1   
     7     2    15 1   
     8     3     4 1   
     9     3    12 1   
    10     3    16 1   
    11     3    17 1   
    12     4    18 1   
    13     4    19 1   
    14     5    20 1   
    15     5    21 1   
    16     5    22 1   
    17     5    31 1   
    18     6     9 1   
    19     6    10 1   
    20     6    23 1   
    21     7     9 1   
    22     7    24 1   
    23     7    25 1   
    24     7    26 1   
    25     8    10 2   
    26     9    27 1   
    27     9    28 1   
    28    11    29 1   
    29    11    30 1   
    30    12    31 1   
    31    13    31 2   
@<TRIPOS>SUBSTRUCTURE
     1 K3D         1 TEMP              0 ****  ****    0 ROOT
