@<TRIPOS>MOLECULE
K3J
   21    21     1     0     0
SMALL
bcc


@<TRIPOS>ATOM
      1 N1           0.0000     0.0000     0.0000 nb         1 K3J      -0.230000
      2 C4           2.0120     0.0000     1.2020 ca         1 K3J      -0.129300
      3 C5           1.3170     0.0000     0.0000 ca         1 K3J       0.258600
      4 C6           2.0700    -0.0010    -1.3050 c3         1 K3J      -0.022400
      5 C           -1.3330    -0.0000     5.8360 c3         1 K3J      -0.002100
      6 C1          -0.2570    -0.0000     4.7490 c3         1 K3J       0.161800
      7 C2          -0.1120     0.0000     2.2800 ca         1 K3J       0.474200
      8 C3           1.2780     0.0000     2.3780 ca         1 K3J      -0.273300
      9 N2          -0.6860     0.0000     1.0850 nb         1 K3J      -0.366000
     10 H1           3.0950     0.0000     1.2200 ha         1 K3J       0.114000
     11 H2           1.3660    -0.0000    -2.1280 hc         1 K3J       0.011033
     12 H3           2.6940     0.8830    -1.3630 hc         1 K3J       0.011033
     13 H4           2.6920    -0.8860    -1.3620 hc         1 K3J       0.011033
     14 H5          -1.8920    -0.0000     3.3550 hn         1 K3J       0.304800
     15 H6          -1.9500     0.8840     5.7330 hc         1 K3J       0.010700
     16 H7          -1.9500    -0.8850     5.7330 hc         1 K3J       0.010700
     17 H8          -0.8620     0.0000     6.8110 hc         1 K3J       0.010700
     18 H9           0.3600    -0.8840     4.8520 h1         1 K3J       0.012700
     19 H10          0.3600     0.8840     4.8520 h1         1 K3J       0.012700
     20 H11          1.7700    -0.0000     3.3430 ha         1 K3J       0.126000
     21 N           -0.8940    -0.0000     3.4290 nu         1 K3J      -0.506900
@<TRIPOS>BOND
     1     1     3 ar  
     2     1     9 ar  
     3     2     3 ar  
     4     2     8 ar  
     5     2    10 1   
     6     3     4 1   
     7     4    11 1   
     8     4    12 1   
     9     4    13 1   
    10     5     6 1   
    11     5    15 1   
    12     5    16 1   
    13     5    17 1   
    14     6    18 1   
    15     6    19 1   
    16     6    21 1   
    17     7     8 ar  
    18     7     9 ar  
    19     7    21 1   
    20     8    20 1   
    21    14    21 1   
@<TRIPOS>SUBSTRUCTURE
     1 K3J         1 TEMP              0 ****  ****    0 ROOT
