@<TRIPOS>MOLECULE
K3M
   20    20     1     0     0
SMALL
bcc


@<TRIPOS>ATOM
      1 C4           0.0000     0.0000     0.0000 ca         1 K3M      -0.286600
      2 C5          -0.7420     0.0000    -1.2780 c          1 K3M       0.355700
      3 C6           1.3980     0.0000     0.0000 ca         1 K3M       0.239900
      4 C7           2.0850     0.0000     1.2000 ca         1 K3M      -0.136000
      5 N           -2.0900     0.0060    -1.2740 nz         1 K3M       0.200600
      6 C            2.1460     0.0010     3.7010 c3         1 K3M       0.044200
      7 O           -0.1370    -0.0050    -2.3320 o          1 K3M      -0.412100
      8 C1           1.3910    -0.0000     2.3960 ca         1 K3M       0.032700
      9 C2           0.0070    -0.0000     2.4010 ca         1 K3M      -0.095000
     10 C3          -0.6920     0.0050     1.2120 ca         1 K3M      -0.055000
     11 F            2.0760    -0.0010    -1.1690 f          1 K3M      -0.093900
     12 H1           3.1680    -0.0000     1.2030 ha         1 K3M       0.151000
     13 H2          -2.4270    -0.0050    -2.2170 hn         1 K3M       0.246800
     14 H3          -2.4260    -0.8030    -0.7900 hn         1 K3M       0.246800
     15 H4           2.8170     0.8510     3.7280 hc         1 K3M       0.031367
     16 H5           2.7180    -0.9150     3.7870 hc         1 K3M       0.031367
     17 H6           1.4440     0.0680     4.5240 hc         1 K3M       0.031367
     18 H7          -0.5300     0.0020     3.3430 ha         1 K3M       0.135000
     19 H8          -1.7760     0.0050     1.2190 ha         1 K3M       0.085000
     20 HN3         -2.4190     0.8310    -0.8120 hn         1 K3M       0.246800
@<TRIPOS>BOND
     1     1     2 1   
     2     1     3 ar  
     3     1    10 ar  
     4     2     5 1   
     5     2     7 2   
     6     3     4 ar  
     7     3    11 1   
     8     4     8 ar  
     9     4    12 1   
    10     5    13 1   
    11     5    14 1   
    12     5    20 1   
    13     6     8 1   
    14     6    15 1   
    15     6    16 1   
    16     6    17 1   
    17     8     9 ar  
    18     9    10 ar  
    19     9    18 1   
    20    10    19 1   
@<TRIPOS>SUBSTRUCTURE
     1 K3M         1 TEMP              0 ****  ****    0 ROOT
