@<TRIPOS>MOLECULE
molecule
   21    22     1     0     0
SMALL
bcc


@<TRIPOS>ATOM
      1 N1           0.0000     0.0000     0.0000 nb         1 K3P      -0.808000
      2 N3          -2.9870    -0.2370    -2.2360 nc         1 K3P      -0.507800
      3 C4           1.3170     0.0000     0.0000 ca         1 K3P       0.715900
      4 C5           1.4060    -0.0010     2.2990 ca         1 K3P       0.494200
      5 C6           0.0240    -0.0010     2.3460 ca         1 K3P      -0.245200
      6 C7          -2.0550    -0.1130    -1.3240 cc         1 K3P       0.312200
      7 N           -4.2270    -0.3170    -1.5900 na         1 K3P       0.061400
      8 C           -5.5310    -0.4610    -2.2420 c3         1 K3P       0.069600
      9 C1          -4.0070    -0.2360    -0.2520 cd         1 K3P      -0.115300
     10 C2          -2.6690    -0.1100    -0.0650 cc         1 K3P      -0.126200
     11 C3          -0.6800    -0.0010     1.1410 ca         1 K3P       0.706600
     12 N2           2.0130     0.0000     1.1200 nb         1 K3P      -0.754000
     13 Cl          -0.8140    -0.0020     3.8660 cl         1 K3P      -0.069400
     14 H1           1.8440     0.0010    -0.9470 h5         1 K3P       0.067100
     15 H2           1.9860    -0.0010     3.2140 h4         1 K3P       0.047100
     16 H3          -0.9920    -0.0280    -1.5120 h4         1 K3P       0.102100
     17 H4          -5.3960    -0.4970    -3.3160 h1         1 K3P       0.055700
     18 H5          -6.0030    -1.3760    -1.9060 h1         1 K3P       0.055700
     19 H6          -6.1590     0.3840    -1.9850 h1         1 K3P       0.055700
     20 H7          -4.7620    -0.2670     0.5240 h4         1 K3P       0.180000
     21 O           -2.0340    -0.0010     1.1350 os         1 K3P      -0.299400
@<TRIPOS>BOND
     1    12     4 ar
     2    12     3 ar
     3     4     5 ar
     4     3     1 ar
     5     5    13 1
     6     5    11 ar
     7     1    11 ar
     8    11    21 1
     9    21    10 1
    10    10     6 1
    11    10     9 2
    12     6     2 2
    13     9     7 1
    14     2     7 1
    15     7     8 1
    16     3    14 1
    17     4    15 1
    18     6    16 1
    19     8    17 1
    20     8    18 1
    21     8    19 1
    22     9    20 1
@<TRIPOS>SUBSTRUCTURE
     1 K3P         1 TEMP              0 ****  ****    0 ROOT
