@<TRIPOS>MOLECULE
molecule
   22    22     1     0     0
SMALL
bcc


@<TRIPOS>ATOM
      1 N1           0.0000     0.0000     0.0000 na         1 K3S       0.123400
      2 N3           0.6030     0.0010     2.0220 nc         1 K3S      -0.366000
      3 C4           1.3530     0.0000     0.0000 cc         1 K3S      -0.273600
      4 C5          -0.8580    -0.0050    -1.1880 c3         1 K3S       0.045600
      5 N            3.5570     1.3790     2.1150 n7         1 K3S      -0.821200
      6 C            5.3270     2.8690     2.9190 c3         1 K3S      -0.093100
      7 C1           4.9300     1.4190     2.6350 c3         1 K3S       0.153800
      8 C3           1.7300     0.0000     1.3000 cd         1 K3S       0.275600
      9 N2          -0.4040     0.0020     1.2220 nd         1 K3S      -0.203800
     10 H1           2.0040    -0.0010    -0.8660 h4         1 K3S       0.184000
     11 H2          -0.6540    -0.8910    -1.7770 h1         1 K3S       0.064367
     12 H3          -0.6580     0.8780    -1.7820 h1         1 K3S       0.064367
     13 H4          -1.8980    -0.0070    -0.8820 h1         1 K3S       0.064367
     14 H5           2.9340     1.7830     2.7870 hn         1 K3S       0.365800
     15 H7           5.2040     3.4600     2.0190 hc         1 K3S       0.039367
     16 H8           6.3620     2.9050     3.2360 hc         1 K3S       0.039367
     17 H9           4.6950     3.2690     3.7030 hc         1 K3S       0.039367
     18 H10          5.6060     0.9970     1.9010 h1         1 K3S       0.029700
     19 H11          4.9870     0.8430     3.5510 h1         1 K3S       0.029700
     20 H12          3.8040    -0.4310     1.0900 h1         1 K3S       0.044200
     21 H13          3.1850    -0.5860     2.7400 h1         1 K3S       0.044200
     22 C2           3.1410     0.0000     1.8300 c3         1 K3S       0.148500
@<TRIPOS>BOND
     1     4     1 1
     2     3     1 1
     3     3     8 2
     4     1     9 1
     5     8    22 1
     6     8     2 1
     7    22     5 1
     8     6     7 1
     9     9     2 2
    10     7     5 1
    11     3    10 1
    12     4    11 1
    13     4    12 1
    14     4    13 1
    15     5    14 1
    16     6    15 1
    17     6    16 1
    18     6    17 1
    19     7    18 1
    20     7    19 1
    21    22    20 1
    22    22    21 1
@<TRIPOS>SUBSTRUCTURE
     1 K3S         1 TEMP              0 ****  ****    0 ROOT
