@<TRIPOS>MOLECULE
K3S
   22    22     1     0     0
SMALL
bcc


@<TRIPOS>ATOM
      1 N1           0.0000     0.0000     0.0000 na         1 K3S       0.588400
      2 N3           0.6030     0.0010     2.0220 nc         1 K3S      -0.315000
      3 C4           1.3530     0.0000     0.0000 cd         1 K3S      -0.434600
      4 C5          -0.8580    -0.0050    -1.1880 c3         1 K3S       0.001600
      5 N            3.5570     1.3790     2.1150 n7         1 K3S      -0.592200
      6 C            5.3270     2.8690     2.9190 c3         1 K3S       0.005900
      7 C1           4.9300     1.4190     2.6350 c3         1 K3S       0.143800
      8 C3           1.7300     0.0000     1.3000 cc         1 K3S       0.265600
      9 N2          -0.4040     0.0020     1.2220 nd         1 K3S      -0.375800
     10 H1           2.0040    -0.0010    -0.8660 h4         1 K3S       0.162000
     11 H2          -0.6540    -0.8910    -1.7770 h1         1 K3S       0.030367
     12 H3          -0.6580     0.8780    -1.7820 h1         1 K3S       0.030367
     13 H4          -1.8980    -0.0070    -0.8820 h1         1 K3S       0.030367
     14 H5           2.9340     1.7830     2.7870 hn         1 K3S       0.264800
     15 H7           5.2040     3.4600     2.0190 hc         1 K3S       0.005033
     16 H8           6.3620     2.9050     3.2360 hc         1 K3S       0.005033
     17 H9           4.6950     3.2690     3.7030 hc         1 K3S       0.005033
     18 H10          5.6060     0.9970     1.9010 h1         1 K3S       0.003200
     19 H11          4.9870     0.8430     3.5510 h1         1 K3S       0.003200
     20 H12          3.8040    -0.4310     1.0900 h1         1 K3S       0.011700
     21 H13          3.1850    -0.5860     2.7400 h1         1 K3S       0.011700
     22 C2           3.1410     0.0000     1.8300 c3         1 K3S       0.149500
@<TRIPOS>BOND
     1     1     3 1   
     2     1     4 1   
     3     1     9 1   
     4     2     8 1   
     5     2     9 2   
     6     3     8 2   
     7     3    10 1   
     8     4    11 1   
     9     4    12 1   
    10     4    13 1   
    11     5     7 1   
    12     5    14 1   
    13     5    22 1   
    14     6     7 1   
    15     6    15 1   
    16     6    16 1   
    17     6    17 1   
    18     7    18 1   
    19     7    19 1   
    20     8    22 1   
    21    20    22 1   
    22    21    22 1   
@<TRIPOS>SUBSTRUCTURE
     1 K3S         1 TEMP              0 ****  ****    0 ROOT
