@<TRIPOS>MOLECULE
molecule
   27    29     1     0     0
SMALL
bcc


@<TRIPOS>ATOM
      1 C15          0.0000     0.0000     0.0000 ca         1 K3T       0.028900
      2 C17         -0.0080     0.0100    -2.4050 ca         1 K3T       0.165900
      3 C01          1.3840     0.0100    -2.4100 ca         1 K3T      -0.170000
      4 C02          2.0790    -0.0010    -1.2430 ca         1 K3T      -0.043000
      5 C03          1.4010     0.0000     0.0000 ca         1 K3T      -0.112800
      6 C04          1.9400     0.0000     1.2980 cc         1 K3T       0.116200
      7 C05          1.0460     0.0000     2.2940 cd         1 K3T      -0.129600
      8 C06          1.3860     0.0000     3.7200 c          1 K3T       0.700300
      9 N07          0.4070     0.0000     4.6470 ns         1 K3T      -0.449400
     10 C08          0.7270     0.0010     5.9900 c2         1 K3T       0.530800
     11 N09         -0.1240     0.0020     6.9490 n2         1 K3T      -0.694900
     12 C11          1.8700    -0.0010     8.3920 c3         1 K3T      -0.063300
     13 S12          2.3700    -0.0060     6.6400 ss         1 K3T      -0.220300
     14 O13          2.5520     0.0020     4.0680 o          1 K3T      -0.535100
     15 S14         -0.5900     0.0000     1.6580 ss         1 K3T      -0.051500
     16 C16         -0.6960     0.0050    -1.2130 ca         1 K3T      -0.149000
     17 F18         -0.6860     0.0210    -3.5750 f          1 K3T      -0.129900
     18 Cl1          3.6510    -0.0010     1.5900 cl         1 K3T      -0.040400
     19 H5           1.9180     0.0140    -3.3520 ha         1 K3T       0.155000
     20 H6           3.1620    -0.0010    -1.2640 ha         1 K3T       0.153000
     21 H7          -0.5520    -0.0010     4.3610 hn         1 K3T       0.343500
     22 H9           2.2260    -0.8930     8.8920 h1         1 K3T       0.078700
     23 H10          2.2290     0.8930     8.8880 h1         1 K3T       0.078700
     24 H11         -1.7790     0.0050    -1.2140 ha         1 K3T       0.156000
     25 C10          0.3350     0.0020     8.3210 c3         1 K3T       0.139800
     26 H1          -0.0410     0.8870     8.8200 h1         1 K3T       0.071700
     27 H2          -0.0430    -0.8820     8.8210 h1         1 K3T       0.071700
@<TRIPOS>BOND
     1    25    12 1
     2     1     5 ar
     3     1    15 1
     4     1    16 ar
     5     2     3 ar
     6     2    16 ar
     7     2    17 1
     8     3     4 ar
     9     4     5 ar
    10     5     6 1
    11     6     7 2
    12     6    18 1
    13     7     8 1
    14     7    15 1
    15     8     9 1
    16     8    14 2
    17     9    10 1
    18    10    11 2
    19    10    13 1
    20    12    13 1
    21    25    26 1
    22    25    27 1
    23     3    19 1
    24     4    20 1
    25     9    21 1
    26    12    22 1
    27    12    23 1
    28    16    24 1
    29    11    25 1
@<TRIPOS>SUBSTRUCTURE
     1 K3T         1 TEMP              0 ****  ****    0 ROOT
