@<TRIPOS>MOLECULE
K3T
   27    29     1     0     0
SMALL
bcc


@<TRIPOS>ATOM
      1 C15          0.0000     0.0000     0.0000 ca         1 K3T       0.075900
      2 C17         -0.0080     0.0100    -2.4050 ca         1 K3T       0.134900
      3 C01          1.3840     0.0100    -2.4100 ca         1 K3T      -0.134000
      4 C02          2.0790    -0.0010    -1.2430 ca         1 K3T      -0.014000
      5 C03          1.4010     0.0000     0.0000 ca         1 K3T      -0.113800
      6 C04          1.9400     0.0000     1.2980 cc         1 K3T       0.046200
      7 C05          1.0460     0.0000     2.2940 cd         1 K3T      -0.103600
      8 C06          1.3860     0.0000     3.7200 c          1 K3T       0.606300
      9 N07          0.4070     0.0000     4.6470 ns         1 K3T       0.013600
     10 C08          0.7270     0.0010     5.9900 c2         1 K3T       0.365800
     11 N09         -0.1240     0.0020     6.9490 n2         1 K3T      -0.603900
     12 C11          1.8700    -0.0010     8.3920 c3         1 K3T       0.026700
     13 S12          2.3700    -0.0060     6.6400 ss         1 K3T      -0.285300
     14 O13          2.5520     0.0020     4.0680 o          1 K3T      -0.580100
     15 S14         -0.5900     0.0000     1.6580 ss         1 K3T      -0.182500
     16 C16         -0.6960     0.0050    -1.2130 ca         1 K3T      -0.102000
     17 F18         -0.6860     0.0210    -3.5750 f          1 K3T      -0.121900
     18 Cl1          3.6510    -0.0010     1.5900 cl         1 K3T       0.065600
     19 H5           1.9180     0.0140    -3.3520 ha         1 K3T       0.125000
     20 H6           3.1620    -0.0010    -1.2640 ha         1 K3T       0.116000
     21 H7          -0.5520    -0.0010     4.3610 hn         1 K3T       0.184500
     22 H9           2.2260    -0.8930     8.8920 h1         1 K3T       0.054700
     23 H10          2.2290     0.8930     8.8880 h1         1 K3T       0.054700
     24 H11         -1.7790     0.0050    -1.2140 ha         1 K3T       0.131000
     25 C10          0.3350     0.0020     8.3210 c3         1 K3T       0.173800
     26 H1          -0.0410     0.8870     8.8200 h1         1 K3T       0.032700
     27 H2          -0.0430    -0.8820     8.8210 h1         1 K3T       0.032700
@<TRIPOS>BOND
     1     1     5 ar  
     2     1    15 1   
     3     1    16 ar  
     4     2     3 ar  
     5     2    16 ar  
     6     2    17 1   
     7     3     4 ar  
     8     3    19 1   
     9     4     5 ar  
    10     4    20 1   
    11     5     6 1   
    12     6     7 2   
    13     6    18 1   
    14     7     8 1   
    15     7    15 1   
    16     8     9 1   
    17     8    14 2   
    18     9    10 1   
    19     9    21 1   
    20    10    11 2   
    21    10    13 1   
    22    11    25 1   
    23    12    13 1   
    24    12    22 1   
    25    12    23 1   
    26    12    25 1   
    27    16    24 1   
    28    25    26 1   
    29    25    27 1   
@<TRIPOS>SUBSTRUCTURE
     1 K3T         1 TEMP              0 ****  ****    0 ROOT
