@<TRIPOS>MOLECULE
K3V
   25    26     1     0     0
SMALL
bcc


@<TRIPOS>ATOM
      1 N1           0.0000     0.0000     0.0000 ns         1 K3V       0.085100
      2 C4           1.2850    -0.0000     2.4720 ca         1 K3V      -0.186900
      3 C5          -0.1740    -0.0050     2.3580 cc         1 K3V       0.446800
      4 C6           1.3500     0.0000     0.0000 c          1 K3V       0.601100
      5 C7           2.0560     0.0000     1.2850 ca         1 K3V      -0.135600
      6 C8           3.4500    -0.0000     1.3610 ca         1 K3V       0.157100
      7 N           -0.7350     0.0000     1.1860 nd         1 K3V      -0.536300
      8 C            5.9910     0.0020     4.0020 c3         1 K3V       0.240700
      9 C1           4.0640     0.0000     2.6080 ca         1 K3V       0.124100
     10 C2           3.3020     0.0010     3.7700 ca         1 K3V      -0.179000
     11 C3           1.9250     0.0010     3.7110 ca         1 K3V      -0.049000
     12 C9           4.5570     1.2720    -0.3140 c3         1 K3V       0.264700
     13 O1           1.9690    -0.0010    -1.0490 o          1 K3V      -0.657500
     14 O2           4.2000    -0.0010     0.2290 os         1 K3V      -0.303900
     15 H1          -0.4870     0.0040    -0.8740 hn         1 K3V       0.204500
     16 H2          -0.7870    -0.0040     3.2520 h4         1 K3V       0.002800
     17 H3           5.6720    -0.8860     4.5350 h1         1 K3V      -0.000633
     18 H4           5.6750     0.8830     4.5470 h1         1 K3V      -0.000633
     19 H5           7.0700     0.0010     3.9110 h1         1 K3V      -0.000633
     20 H6           3.7960     0.0010     4.7340 ha         1 K3V       0.124000
     21 H7           1.3420     0.0020     4.6240 ha         1 K3V       0.109000
     22 H8           5.5350     1.5590     0.0510 h1         1 K3V      -0.007633
     23 H9           4.5790     1.2100    -1.3960 h1         1 K3V      -0.007633
     24 H10          3.8270     2.0120    -0.0100 h1         1 K3V      -0.007633
     25 O            5.4210     0.0010     2.6910 os         1 K3V      -0.287900
@<TRIPOS>BOND
     1     1     4 1   
     2     1     7 1   
     3     1    15 1   
     4     2     3 1   
     5     2     5 ar  
     6     2    11 ar  
     7     3     7 2   
     8     3    16 1   
     9     4     5 1   
    10     4    13 2   
    11     5     6 ar  
    12     6     9 ar  
    13     6    14 1   
    14     8    17 1   
    15     8    18 1   
    16     8    19 1   
    17     8    25 1   
    18     9    10 ar  
    19     9    25 1   
    20    10    11 ar  
    21    10    20 1   
    22    11    21 1   
    23    12    14 1   
    24    12    22 1   
    25    12    23 1   
    26    12    24 1   
@<TRIPOS>SUBSTRUCTURE
     1 K3V         1 TEMP              0 ****  ****    0 ROOT
