@<TRIPOS>MOLECULE
K3Y
   32    33     1     0     0
SMALL
bcc


@<TRIPOS>ATOM
      1 N1           0.0000     0.0000     0.0000 nz         1 K3Y       0.192600
      2 N3           6.2830    -1.3120     1.2580 n7         1 K3Y      -0.574200
      3 C4           3.4880     0.0010    -1.4360 cc         1 K3Y       0.433600
      4 C5           4.5630    -0.0800     0.0230 c3         1 K3Y       0.010000
      5 C6           5.4550     1.1640     0.0230 c3         1 K3Y      -0.044400
      6 C7           6.3550     1.1370     1.2620 c3         1 K3Y      -0.018400
      7 C8           7.1820    -0.1510     1.2570 c3         1 K3Y       0.139800
      8 N            2.5450     0.0040    -3.4230 na         1 K3Y       0.602400
      9 C            2.4100     0.0090    -4.8820 c3         1 K3Y      -0.003400
     10 O            1.9550     0.0000     1.0530 o          1 K3Y      -0.449100
     11 C1           1.5320     0.0000    -2.5420 cd         1 K3Y      -0.237300
     12 C2           2.0840     0.0010    -1.2780 cc         1 K3Y      -0.475900
     13 C3           1.3480     0.0000     0.0000 c          1 K3Y       0.400700
     14 C9           5.4430    -1.3330     0.0540 c3         1 K3Y       0.135800
     15 N2           3.7500     0.0070    -2.7130 nd         1 K3Y      -0.607800
     16 H1          -0.3340     0.8170    -0.4720 hn         1 K3Y       0.244467
     17 H2          -0.3340     0.0000     0.9440 hn         1 K3Y       0.244467
     18 H5           3.9260    -0.0660     0.8990 hc         1 K3Y       0.058700
     19 H6           6.0240     1.2010    -0.8980 hc         1 K3Y       0.024700
     20 H7           4.8390     2.0510     0.1110 hc         1 K3Y       0.024700
     21 H8           5.7410     1.1680     2.1540 hc         1 K3Y       0.027700
     22 H9           7.0200     1.9920     1.2440 hc         1 K3Y       0.027700
     23 H10          7.8070    -0.1800     2.1420 h1         1 K3Y       0.016700
     24 H11          7.8020    -0.1770     0.3690 h1         1 K3Y       0.016700
     25 H12          1.8630    -0.8710    -5.1960 h1         1 K3Y       0.044033
     26 H13          1.8750     0.8980    -5.1920 h1         1 K3Y       0.044033
     27 H14          3.3940     0.0030    -5.3350 h1         1 K3Y       0.044033
     28 H15          0.4750     0.0000    -2.7800 h4         1 K3Y       0.137000
     29 H16          6.0690    -1.3540    -0.8300 h1         1 K3Y       0.014200
     30 H17          4.8130    -2.2140     0.0780 h1         1 K3Y       0.014200
     31 H131        -0.3340    -0.8970    -0.2940 hn         1 K3Y       0.244467
     32 H3           6.8240    -2.1530     1.3020 hn         1 K3Y       0.266800
@<TRIPOS>BOND
     1     1    13 1   
     2     1    16 1   
     3     1    17 1   
     4     1    31 1   
     5     2     7 1   
     6     2    14 1   
     7     2    32 1   
     8     3     4 1   
     9     3    12 1   
    10     3    15 2   
    11     4     5 1   
    12     4    14 1   
    13     4    18 1   
    14     5     6 1   
    15     5    19 1   
    16     5    20 1   
    17     6     7 1   
    18     6    21 1   
    19     6    22 1   
    20     7    23 1   
    21     7    24 1   
    22     8     9 1   
    23     8    11 1   
    24     8    15 1   
    25     9    25 1   
    26     9    26 1   
    27     9    27 1   
    28    10    13 2   
    29    11    12 2   
    30    11    28 1   
    31    12    13 1   
    32    14    29 1   
    33    14    30 1   
@<TRIPOS>SUBSTRUCTURE
     1 K3Y         1 TEMP              0 ****  ****    0 ROOT
