@<TRIPOS>MOLECULE
molecule
   23    23     1     0     0
SMALL
bcc


@<TRIPOS>ATOM
      1 N1           0.0000     0.0000     0.0000 nc         1 K41      -0.396000
      2 N3           0.5570     0.0010     2.0300 na         1 K41       0.236900
      3 C4           1.3340     0.0000     0.0000 cd         1 K41       0.664900
      4 C5           0.4790     0.0020     3.4920 c3         1 K41       0.073600
      5 N            2.1610     0.0000    -1.1280 ns         1 K41      -0.529400
      6 C            3.3940    -1.2500    -3.5620 c3         1 K41      -0.082600
      7 O            0.4140    -0.0010    -2.4940 o          1 K41      -0.532100
      8 C1           2.5110    -0.0000    -3.5760 c3         1 K41      -0.145700
      9 C2           1.6490    -0.0000    -4.8410 c3         1 K41      -0.082600
     10 C3           1.6190    -0.0000    -2.3620 c          1 K41       0.655100
     11 N2          -0.4370     0.0010     1.2090 nd         1 K41      -0.140800
     12 N4           1.7300     0.0000     1.2560 nc         1 K41      -0.604800
     13 H1           0.7840    -0.9660     3.8710 h1         1 K41       0.068033
     14 H2           1.1360     0.7680     3.8880 h1         1 K41       0.068033
     15 H3          -0.5390     0.2060     3.7990 h1         1 K41       0.068033
     16 H4           3.1560     0.0360    -1.0190 hn         1 K41       0.342500
     17 H5           3.7450    -1.4560    -4.5660 hc         1 K41       0.045033
     18 H6           2.8200    -2.0940    -3.2000 hc         1 K41       0.045033
     19 H7           4.2430    -1.0840    -2.9090 hc         1 K41       0.045033
     20 H8           3.1360     0.8840    -3.5650 hc         1 K41       0.065700
     21 H9           0.9920     0.8610    -4.8310 hc         1 K41       0.045033
     22 H10          1.0560    -0.9060    -4.8750 hc         1 K41       0.045033
     23 H11          2.2890     0.0440    -5.7140 hc         1 K41       0.045033
@<TRIPOS>BOND
     1     6     8 1
     2     9     8 1
     3     8    10 1
     4     7    10 2
     5    10     5 1
     6     5     3 1
     7    12     3 2
     8    12     2 1
     9     3     1 1
    10     2     4 1
    11     2    11 1
    12     1    11 2
    13     4    13 1
    14     4    14 1
    15     4    15 1
    16     5    16 1
    17     6    17 1
    18     6    18 1
    19     6    19 1
    20     8    20 1
    21     9    21 1
    22     9    22 1
    23     9    23 1
@<TRIPOS>SUBSTRUCTURE
     1 K41         1 TEMP              0 ****  ****    0 ROOT
