@<TRIPOS>MOLECULE
K41
   23    23     1     0     0
SMALL
bcc


@<TRIPOS>ATOM
      1 N1           0.0000     0.0000     0.0000 nc         1 K41      -0.361000
      2 N3           0.5570     0.0010     2.0300 na         1 K41       0.621900
      3 C4           1.3340     0.0000     0.0000 cc         1 K41       0.533900
      4 C5           0.4790     0.0020     3.4920 c3         1 K41       0.050600
      5 N            2.1610     0.0000    -1.1280 ns         1 K41      -0.078400
      6 C            3.3940    -1.2500    -3.5620 c3         1 K41       0.013900
      7 O            0.4140    -0.0010    -2.4940 o          1 K41      -0.563100
      8 C1           2.5110    -0.0000    -3.5760 c3         1 K41      -0.121700
      9 C2           1.6490    -0.0000    -4.8410 c3         1 K41       0.013900
     10 C3           1.6190    -0.0000    -2.3620 c          1 K41       0.545100
     11 N2          -0.4370     0.0010     1.2090 nd         1 K41      -0.275800
     12 N4           1.7300     0.0000     1.2560 nd         1 K41      -0.744800
     13 H1           0.7840    -0.9660     3.8710 h1         1 K41       0.030033
     14 H2           1.1360     0.7680     3.8880 h1         1 K41       0.030033
     15 H3          -0.5390     0.2060     3.7990 h1         1 K41       0.030033
     16 H4           3.1560     0.0360    -1.0190 hn         1 K41       0.178500
     17 H5           3.7450    -1.4560    -4.5660 hc         1 K41       0.010533
     18 H6           2.8200    -2.0940    -3.2000 hc         1 K41       0.010533
     19 H7           4.2430    -1.0840    -2.9090 hc         1 K41       0.010533
     20 H8           3.1360     0.8840    -3.5650 hc         1 K41       0.034700
     21 H9           0.9920     0.8610    -4.8310 hc         1 K41       0.010533
     22 H10          1.0560    -0.9060    -4.8750 hc         1 K41       0.010533
     23 H11          2.2890     0.0440    -5.7140 hc         1 K41       0.010533
@<TRIPOS>BOND
     1     1     3 1   
     2     1    11 2   
     3     2     4 1   
     4     2    11 1   
     5     2    12 1   
     6     3     5 1   
     7     3    12 2   
     8     4    13 1   
     9     4    14 1   
    10     4    15 1   
    11     5    10 1   
    12     5    16 1   
    13     6     8 1   
    14     6    17 1   
    15     6    18 1   
    16     6    19 1   
    17     7    10 2   
    18     8     9 1   
    19     8    10 1   
    20     8    20 1   
    21     9    21 1   
    22     9    22 1   
    23     9    23 1   
@<TRIPOS>SUBSTRUCTURE
     1 K41         1 TEMP              0 ****  ****    0 ROOT
