@<TRIPOS>MOLECULE
K4D
   48    49     1     0     0
SMALL
bcc


@<TRIPOS>ATOM
      1 C10          0.0000     0.0000     0.0000 c          1 K4D       0.594700
      2 N12          1.3480     0.0000     0.0000 ns         1 K4D      -0.205900
      3 C13          2.0800     0.0000     1.2690 c3         1 K4D       0.053000
      4 C15          4.3480    -0.1240     2.3110 c3         1 K4D      -0.017400
      5 C17          6.1680    -1.3070     1.0800 c3         1 K4D      -0.025400
      6 C20         -2.1380    -0.0060    -1.2830 ca         1 K4D       0.178100
      7 C22         -4.2500    -0.0280    -0.1930 c3         1 K4D       0.129400
      8 C28         -2.1280     0.0030    -3.6810 ca         1 K4D      -0.138000
      9 C02          0.0820     0.0370    -7.2750 c3         1 K4D       0.572900
     10 C05         -0.8460     0.0240    -6.0590 c3         1 K4D       0.142400
     11 C07         -0.7390     0.0150    -3.6840 ca         1 K4D       0.103100
     12 C08         -0.0420     0.0030    -2.4900 ca         1 K4D      -0.078000
     13 C09         -0.7380    -0.0010    -1.2790 ca         1 K4D      -0.144600
     14 C14          3.5840     0.0000     0.9910 c3         1 K4D       0.102500
     15 C16          5.8520    -0.1460     2.0250 c3         1 K4D      -0.025400
     16 C18          5.3520    -1.1470    -0.2060 c3         1 K4D       0.148800
     17 C23         -4.8410    -0.0370     1.2180 c3         1 K4D       0.577900
     18 C27         -2.8230    -0.0070    -2.4880 ca         1 K4D      -0.179000
     19 F01          0.8800     1.1850    -7.2410 f          1 K4D      -0.200967
     20 F03          0.8980    -1.0990    -7.2520 f          1 K4D      -0.200967
     21 F04         -0.6850     0.0350    -8.4460 f          1 K4D      -0.200967
     22 F24         -4.4040    -1.1790     1.8990 f          1 K4D      -0.200633
     23 F25         -4.4220     1.1050     1.9080 f          1 K4D      -0.200633
     24 F26         -6.2380    -0.0480     1.1390 f          1 K4D      -0.200633
     25 N19          3.9200    -1.1350     0.1200 n7         1 K4D      -0.575200
     26 O11         -0.6080    -0.0040     1.0520 o          1 K4D      -0.621100
     27 O21         -2.8230    -0.0170    -0.1110 os         1 K4D      -0.235900
     28 H1           1.8480     0.0520    -0.8650 hn         1 K4D       0.176500
     29 H2           1.8180     0.8840     1.8380 h1         1 K4D       0.036200
     30 H3           1.8180    -0.8850     1.8370 h1         1 K4D       0.036200
     31 H4           4.0620    -1.0440     2.8070 hc         1 K4D       0.025200
     32 H5           4.1130     0.7230     2.9440 hc         1 K4D       0.025200
     33 H6           7.2250    -1.3000     0.8390 hc         1 K4D       0.021200
     34 H7           5.9070    -2.2430     1.5580 hc         1 K4D       0.021200
     35 H8          -4.5740    -0.9130    -0.7270 h1         1 K4D       0.033200
     36 H9          -4.5880     0.8560    -0.7200 h1         1 K4D       0.033200
     37 H10         -2.6690     0.0070    -4.6200 ha         1 K4D       0.117000
     38 H11         -1.4780     0.9040    -6.0780 h1         1 K4D       0.036700
     39 H12         -1.4640    -0.8650    -6.0860 h1         1 K4D       0.036700
     40 H13          1.0420     0.0120    -2.4940 ha         1 K4D       0.119000
     41 H14          3.8640     0.9250     0.5000 h1         1 K4D       0.007700
     42 H15          6.3940    -0.2790     2.9540 hc         1 K4D       0.014200
     43 H16          6.1450     0.7880     1.5600 hc         1 K4D       0.014200
     44 H17          5.5620    -1.9760    -0.8710 h1         1 K4D       0.005700
     45 H18          5.6190    -0.2150    -0.6880 h1         1 K4D       0.005700
     46 H19         -3.9060    -0.0130    -2.4940 ha         1 K4D       0.123000
     47 H20          3.3960    -1.0460    -0.7280 hn         1 K4D       0.245800
     48 O06         -0.0630     0.0250    -4.8640 os         1 K4D      -0.287900
@<TRIPOS>BOND
     1     1     2 1   
     2     1    13 1   
     3     1    26 2   
     4     2     3 1   
     5     2    28 1   
     6     3    14 1   
     7     3    29 1   
     8     3    30 1   
     9     4    14 1   
    10     4    15 1   
    11     4    31 1   
    12     4    32 1   
    13     5    15 1   
    14     5    16 1   
    15     5    33 1   
    16     5    34 1   
    17     6    13 ar  
    18     6    18 ar  
    19     6    27 1   
    20     7    17 1   
    21     7    27 1   
    22     7    35 1   
    23     7    36 1   
    24     8    11 ar  
    25     8    18 ar  
    26     8    37 1   
    27     9    10 1   
    28     9    19 1   
    29     9    20 1   
    30     9    21 1   
    31    10    38 1   
    32    10    39 1   
    33    10    48 1   
    34    11    12 ar  
    35    11    48 1   
    36    12    13 ar  
    37    12    40 1   
    38    14    25 1   
    39    14    41 1   
    40    15    42 1   
    41    15    43 1   
    42    16    25 1   
    43    16    44 1   
    44    16    45 1   
    45    17    22 1   
    46    17    23 1   
    47    17    24 1   
    48    18    46 1   
    49    25    47 1   
@<TRIPOS>SUBSTRUCTURE
     1 K4D         1 TEMP              0 ****  ****    0 ROOT
