@<TRIPOS>MOLECULE
K4E
   56    59     1     0     0
SMALL
bcc


@<TRIPOS>ATOM
      1 N1         -0.5240   -0.8050   -1.0130 nh        1 K4E     -0.752600
      2 C1          0.2810   -0.2190   -0.0040 ca        1 K4E      0.065600
      3 C2         -0.0270   -0.3690    1.3600 ca        1 K4E     -0.179000
      4 C3          0.7120    0.3080    2.3340 ca        1 K4E      0.012400
      5 C4          1.7780    1.1360    1.9760 ca        1 K4E     -0.088000
      6 C5          2.1110    1.2850    0.6320 ca        1 K4E     -0.155000
      7 C6          1.3830    0.6170   -0.3570 ca        1 K4E      0.113100
      8 O1          1.6500    0.7170   -1.7070 os        1 K4E     -0.344900
      9 C7          2.8340    1.4250   -2.0740 c3        1 K4E      0.113700
     10 CL1         0.3020    0.1080    3.9660 cl        1 K4E     -0.059400
     11 C8         -1.1800   -2.0430   -0.7250 c3        1 K4E      0.120800
     12 C9         -2.6470   -1.8850   -0.3060 c         1 K4E      0.517100
     13 O2         -3.4290   -2.8110   -0.1670 o         1 K4E     -0.409100
     14 N2         -3.1470   -0.4860   -0.0460 n4        1 K4E     -0.667800
     15 C10        -4.5480   -0.4030    0.5030 c3        1 K4E      0.114500
     16 C11        -4.5950   -0.7550    1.9930 c3        1 K4E     -0.091900
     17 C12        -6.0320   -0.7450    2.4670 c3        1 K4E     -0.106400
     18 C13        -5.1320    0.9980    0.2900 c3        1 K4E     -0.091900
     19 C14        -6.5700    1.0170    0.7600 c3        1 K4E     -0.106400
     20 C15        -6.6810    0.6360    2.2490 c3        1 K4E      0.130700
     21 N3         -8.0370    0.6510    2.7410 n         1 K4E     -0.350000
     22 C16        -9.0940   -0.0820    2.0880 c         1 K4E      0.783500
     23 O3         -8.9380   -1.0890    1.3740 o         1 K4E     -0.639500
     24 N4        -10.3300    0.5370    2.3980 n         1 K4E     -0.442100
     25 C17       -10.0730    1.6410    3.2370 ca        1 K4E      0.005600
     26 C18        -8.6370    1.7590    3.3970 ca        1 K4E     -0.019400
     27 C19        -8.0970    2.7910    4.1520 ca        1 K4E     -0.122000
     28 C20        -8.9800    3.7030    4.7430 ca        1 K4E     -0.125000
     29 C21       -10.3600    3.5870    4.5910 ca        1 K4E     -0.113000
     30 C22       -10.9310    2.5550    3.8370 ca        1 K4E     -0.121000
     31 H1         -0.0830   -0.7860   -1.9150 hn        1 K4E      0.447800
     32 H2         -0.8290   -1.0490    1.6860 ha        1 K4E      0.125000
     33 H3          2.3590    1.6660    2.7480 ha        1 K4E      0.171000
     34 H4          2.9590    1.9320    0.3580 ha        1 K4E      0.165000
     35 H5          3.7330    0.9680   -1.5940 h1        1 K4E      0.060367
     36 H6          2.8680    1.3000   -3.1870 h1        1 K4E      0.060367
     37 H7          2.7400    2.5040   -1.8010 h1        1 K4E      0.060367
     38 H8         -0.6970   -2.6310    0.1150 h1        1 K4E      0.120200
     39 H9         -1.2070   -2.7050   -1.6430 h1        1 K4E      0.120200
     40 H10        -3.1060    0.0310   -0.9330 hn        1 K4E      0.465800
     41 H11        -5.1680   -1.1580   -0.0720 hx        1 K4E      0.128700
     42 H12        -4.1670   -1.7790    2.1600 hc        1 K4E      0.063200
     43 H13        -3.9910   -0.0180    2.5850 hc        1 K4E      0.063200
     44 H14        -6.6280   -1.5280    1.9230 hc        1 K4E      0.087450
     45 H15        -6.0520   -1.0040    3.5590 hc        1 K4E      0.087450
     46 H16        -5.1030    1.2780   -0.7960 hc        1 K4E      0.063200
     47 H17        -4.5350    1.7570    0.8620 hc        1 K4E      0.063200
     48 H18        -6.9850    2.0480    0.6000 hc        1 K4E      0.087450
     49 H19        -7.1860    0.3020    0.1480 hc        1 K4E      0.087450
     50 H20        -6.1050    1.4000    2.8550 h1        1 K4E      0.066700
     51 H21       -11.2010    0.0780    2.3150 hn        1 K4E      0.360500
     52 H22        -7.0130    2.8950    4.2930 ha        1 K4E      0.137000
     53 H23        -8.5670    4.5270    5.3440 ha        1 K4E      0.145000
     54 H24       -11.0230    4.3210    5.0750 ha        1 K4E      0.148000
     55 H25       -12.0210    2.4750    3.7280 ha        1 K4E      0.153000
     56 H221       -2.4970   -0.0310    0.6120 hn        1 K4E      0.465800
@<TRIPOS>BOND
     1    1    2 1
     2    1   11 1
     3    1   31 1
     4    2    3 ar
     5    2    7 ar
     6    3    4 ar
     7    3   32 1
     8    4    5 ar
     9    4   10 1
    10    5    6 ar
    11    5   33 1
    12    6    7 ar
    13    6   34 1
    14    7    8 1
    15    8    9 1
    16    9   35 1
    17    9   36 1
    18    9   37 1
    19   11   12 1
    20   11   38 1
    21   11   39 1
    22   12   13 2
    23   12   14 1
    24   14   15 1
    25   14   40 1
    26   14   56 1
    27   15   16 1
    28   15   18 1
    29   15   41 1
    30   16   17 1
    31   16   42 1
    32   16   43 1
    33   17   20 1
    34   17   44 1
    35   17   45 1
    36   18   19 1
    37   18   46 1
    38   18   47 1
    39   19   20 1
    40   19   48 1
    41   19   49 1
    42   20   21 1
    43   20   50 1
    44   21   22 1
    45   21   26 1
    46   22   23 2
    47   22   24 1
    48   24   25 1
    49   24   51 1
    50   25   26 ar
    51   25   30 ar
    52   26   27 ar
    53   27   28 ar
    54   27   52 1
    55   28   29 ar
    56   28   53 1
    57   29   30 ar
    58   29   54 1
    59   30   55 1
@<TRIPOS>SUBSTRUCTURE
     1 K4E         1 TEMP              0 ****  ****    0 ROOT
