@<TRIPOS>MOLECULE
K4F
   56    60     1     0     0
SMALL
bcc


@<TRIPOS>ATOM
      1 C1           0.0000     0.0000     0.0000 ca         1 K4F      -0.091000
      2 C2           1.3830     0.0000     0.0000 ca         1 K4F      -0.093500
      3 C3           2.0740     0.0000     1.1970 ca         1 K4F      -0.089000
      4 C4           1.3840     0.0000     2.3940 ca         1 K4F      -0.093500
      5 C5           0.0010     0.0010     2.3940 ca         1 K4F      -0.091000
      6 C6          -0.6900     0.0000     1.1980 ca         1 K4F      -0.119300
      7 C7          -2.1980     0.0070     1.1980 c3         1 K4F       0.032000
      8 C8          -2.7450    -1.3910     1.5490 c3         1 K4F       0.148800
      9 C9          -1.5960    -2.3710     1.7890 c3         1 K4F      -0.013600
     10 C10         -3.6620    -1.9020     0.4370 c3         1 K4F      -0.013600
     11 O1          -3.5010    -1.1740     2.7760 os         1 K4F      -0.359900
     12 C11         -3.4330     0.1170     3.1200 c          1 K4F       0.771600
     13 O2          -3.9780     0.5680     4.1080 o          1 K4F      -0.672500
     14 N1          -2.7110     0.8650     2.2770 n          1 K4F      -0.012000
     15 C12         -2.4810     2.2350     2.4020 ca         1 K4F      -0.019400
     16 C13         -1.6270     2.8790     1.5120 ca         1 K4F      -0.169000
     17 C14         -1.3990     4.2320     1.6320 ca         1 K4F      -0.026000
     18 C15         -3.1110     2.9550     3.4110 ca         1 K4F      -0.169000
     19 C16         -2.8880     4.3080     3.5370 ca         1 K4F      -0.026000
     20 C17         -2.0260     4.9570     2.6480 ca         1 K4F      -0.193600
     21 C18         -1.7850     6.4070     2.7800 c          1 K4F       0.587700
     22 O3          -1.0390     6.9720     2.0040 o          1 K4F      -0.650100
     23 N2          -2.3900     7.1050     3.7610 ns         1 K4F      -0.001100
     24 C19         -2.2270     8.4900     3.8360 ca         1 K4F      -0.141700
     25 C20         -1.1030     9.0850     3.3070 ca         1 K4F      -0.130000
     26 C21         -0.9280    10.4640     3.3740 ca         1 K4F      -0.069000
     27 C22         -1.8590    11.2620     3.9650 ca         1 K4F      -0.110000
     28 C23         -3.2150     9.2900     4.4500 ca         1 K4F       0.356600
     29 C24         -3.0200    10.6920     4.5170 ca         1 K4F      -0.130300
     30 C25         -4.0050    11.4890     5.1290 ca         1 K4F      -0.051000
     31 C26         -5.1120    10.8690     5.6350 ca         1 K4F      -0.225300
     32 C27         -5.2410     9.4860     5.5360 ca         1 K4F       0.410200
     33 N3          -4.3180     8.7470     4.9680 nb         1 K4F      -0.587000
     34 H1          -0.5420    -0.0000    -0.9380 ha         1 K4F       0.112500
     35 H2           1.9240    -0.0000    -0.9380 ha         1 K4F       0.108000
     36 H3           3.1570    -0.0000     1.1970 ha         1 K4F       0.107000
     37 H4           1.9250     0.0010     3.3320 ha         1 K4F       0.108000
     38 H5          -0.5410     0.0010     3.3320 ha         1 K4F       0.112500
     39 H6          -2.5830     0.3340     0.2400 h1         1 K4F       0.056700
     40 H7          -1.9910    -3.3750     1.8820 hc         1 K4F       0.022867
     41 H8          -1.0760    -2.1020     2.7000 hc         1 K4F       0.022867
     42 H9          -0.9060    -2.3310     0.9550 hc         1 K4F       0.022867
     43 H10         -3.0820    -2.0680    -0.4630 hc         1 K4F       0.022867
     44 H11         -4.1210    -2.8330     0.7470 hc         1 K4F       0.022867
     45 H12         -4.4340    -1.1680     0.2390 hc         1 K4F       0.022867
     46 H13         -1.1420     2.3170     0.7240 ha         1 K4F       0.149500
     47 H14         -0.7320     4.7330     0.9400 ha         1 K4F       0.117000
     48 H15         -3.7790     2.4510     4.0990 ha         1 K4F       0.149500
     49 H16         -3.3780     4.8670     4.3250 ha         1 K4F       0.117000
     50 H17         -2.9260     6.6270     4.4570 hn         1 K4F       0.187500
     51 H18         -0.3470     8.4720     2.8310 ha         1 K4F       0.169000
     52 H19         -0.0350    10.9100     2.9510 ha         1 K4F       0.103000
     53 H20         -1.7080    12.3340     4.0090 ha         1 K4F       0.107000
     54 H21         -3.8890    12.5640     5.1970 ha         1 K4F       0.111000
     55 H22         -5.8910    11.4530     6.1100 ha         1 K4F       0.112000
     56 H23         -6.1240     9.0080     5.9420 h4         1 K4F      -0.022900
@<TRIPOS>BOND
     1     1     2 ar  
     2     1     6 ar  
     3     1    34 1   
     4     2     3 ar  
     5     2    35 1   
     6     3     4 ar  
     7     3    36 1   
     8     4     5 ar  
     9     4    37 1   
    10     5     6 ar  
    11     5    38 1   
    12     6     7 1   
    13     7     8 1   
    14     7    14 1   
    15     7    39 1   
    16     8     9 1   
    17     8    10 1   
    18     8    11 1   
    19     9    40 1   
    20     9    41 1   
    21     9    42 1   
    22    10    43 1   
    23    10    44 1   
    24    10    45 1   
    25    11    12 1   
    26    12    13 2   
    27    12    14 1   
    28    14    15 1   
    29    15    16 ar  
    30    15    18 ar  
    31    16    17 ar  
    32    16    46 1   
    33    17    20 ar  
    34    17    47 1   
    35    18    19 ar  
    36    18    48 1   
    37    19    20 ar  
    38    19    49 1   
    39    20    21 1   
    40    21    22 2   
    41    21    23 1   
    42    23    24 1   
    43    23    50 1   
    44    24    25 ar  
    45    24    28 ar  
    46    25    26 ar  
    47    25    51 1   
    48    26    27 ar  
    49    26    52 1   
    50    27    29 ar  
    51    27    53 1   
    52    28    29 ar  
    53    28    33 ar  
    54    29    30 ar  
    55    30    31 ar  
    56    30    54 1   
    57    31    32 ar  
    58    31    55 1   
    59    32    33 ar  
    60    32    56 1   
@<TRIPOS>SUBSTRUCTURE
     1 K4F         1 TEMP              0 ****  ****    0 ROOT
