@<TRIPOS>MOLECULE
molecule
   56    60     1     0     0
SMALL
bcc


@<TRIPOS>ATOM
      1 C1           0.0000     0.0000     0.0000 ca         1 K4F      -0.115000
      2 C2           1.3830     0.0000     0.0000 ca         1 K4F      -0.124500
      3 C3           2.0740     0.0000     1.1970 ca         1 K4F      -0.117000
      4 C4           1.3840     0.0000     2.3940 ca         1 K4F      -0.124500
      5 C5           0.0010     0.0010     2.3940 ca         1 K4F      -0.115000
      6 C6          -0.6900     0.0000     1.1980 ca         1 K4F      -0.114300
      7 C7          -2.1980     0.0070     1.1980 c3         1 K4F       0.121000
      8 C8          -2.7450    -1.3910     1.5490 c3         1 K4F       0.137800
      9 C9          -1.5960    -2.3710     1.7890 c3         1 K4F      -0.094600
     10 C10         -3.6620    -1.9020     0.4370 c3         1 K4F      -0.094600
     11 O1          -3.5010    -1.1740     2.7760 os         1 K4F      -0.368900
     12 C11         -3.4330     0.1170     3.1200 c          1 K4F       0.832600
     13 O2          -3.9780     0.5680     4.1080 o          1 K4F      -0.620500
     14 N1          -2.7110     0.8650     2.2770 n          1 K4F      -0.399000
     15 C12         -2.4810     2.2350     2.4020 ca         1 K4F       0.118600
     16 C13         -1.6270     2.8790     1.5120 ca         1 K4F      -0.179500
     17 C14         -1.3990     4.2320     1.6320 ca         1 K4F      -0.058500
     18 C15         -3.1110     2.9550     3.4110 ca         1 K4F      -0.179500
     19 C16         -2.8880     4.3080     3.5370 ca         1 K4F      -0.058500
     20 C17         -2.0260     4.9570     2.6480 ca         1 K4F      -0.181600
     21 C18         -1.7850     6.4070     2.7800 c          1 K4F       0.679700
     22 O3          -1.0390     6.9720     2.0040 o          1 K4F      -0.609100
     23 N2          -2.3900     7.1050     3.7610 ns         1 K4F      -0.451100
     24 C19         -2.2270     8.4900     3.8360 ca         1 K4F       0.013300
     25 C20         -1.1030     9.0850     3.3070 ca         1 K4F      -0.144000
     26 C21         -0.9280    10.4640     3.3740 ca         1 K4F      -0.102000
     27 C22         -1.8590    11.2620     3.9650 ca         1 K4F      -0.139000
     28 C23         -3.2150     9.2900     4.4500 ca         1 K4F       0.395600
     29 C24         -3.0200    10.6920     4.5170 ca         1 K4F      -0.136300
     30 C25         -4.0050    11.4890     5.1290 ca         1 K4F      -0.078000
     31 C26         -5.1120    10.8690     5.6350 ca         1 K4F      -0.256300
     32 C27         -5.2410     9.4860     5.5360 ca         1 K4F       0.427200
     33 N3          -4.3180     8.7470     4.9680 nb         1 K4F      -0.694000
     34 H1          -0.5420    -0.0000    -0.9380 ha         1 K4F       0.137000
     35 H2           1.9240    -0.0000    -0.9380 ha         1 K4F       0.136500
     36 H3           3.1570    -0.0000     1.1970 ha         1 K4F       0.135000
     37 H4           1.9250     0.0010     3.3320 ha         1 K4F       0.136500
     38 H5          -0.5410     0.0010     3.3320 ha         1 K4F       0.137000
     39 H6          -2.5830     0.3340     0.2400 h1         1 K4F       0.083700
     40 H7          -1.9910    -3.3750     1.8820 hc         1 K4F       0.055867
     41 H8          -1.0760    -2.1020     2.7000 hc         1 K4F       0.055867
     42 H9          -0.9060    -2.3310     0.9550 hc         1 K4F       0.055867
     43 H10         -3.0820    -2.0680    -0.4630 hc         1 K4F       0.055867
     44 H11         -4.1210    -2.8330     0.7470 hc         1 K4F       0.055867
     45 H12         -4.4340    -1.1680     0.2390 hc         1 K4F       0.055867
     46 H13         -1.1420     2.3170     0.7240 ha         1 K4F       0.167000
     47 H14         -0.7320     4.7330     0.9400 ha         1 K4F       0.147500
     48 H15         -3.7790     2.4510     4.0990 ha         1 K4F       0.167000
     49 H16         -3.3780     4.8670     4.3250 ha         1 K4F       0.147500
     50 H17         -2.9260     6.6270     4.4570 hn         1 K4F       0.342500
     51 H18         -0.3470     8.4720     2.8310 ha         1 K4F       0.186000
     52 H19         -0.0350    10.9100     2.9510 ha         1 K4F       0.134000
     53 H20         -1.7080    12.3340     4.0090 ha         1 K4F       0.132000
     54 H21         -3.8890    12.5640     5.1970 ha         1 K4F       0.140000
     55 H22         -5.8910    11.4530     6.1100 ha         1 K4F       0.137000
     56 H23         -6.1240     9.0080     5.9420 h4         1 K4F       0.021100
@<TRIPOS>BOND
     1     3     4 ar
     2     3     2 ar
     3    31    32 ar
     4    31    30 ar
     5     4     5 ar
     6    32    33 ar
     7    30    29 ar
     8     2     1 ar
     9    33    28 ar
    10    29    28 ar
    11    29    27 ar
    12    28    24 ar
    13     5     6 ar
    14    27    26 ar
    15    24    23 1
    16    24    25 ar
    17     1     6 ar
    18    26    25 ar
    19    23    21 1
    20     6     7 1
    21    17    16 ar
    22    17    20 ar
    23    16    15 ar
    24    21    20 1
    25    21    22 2
    26    20    19 ar
    27    15    14 1
    28    15    18 ar
    29     7    14 1
    30     7     8 1
    31    19    18 ar
    32    14    12 1
    33    13    12 2
    34    12    11 1
    35     9     8 1
    36    11     8 1
    37     8    10 1
    38     1    34 1
    39     2    35 1
    40     3    36 1
    41     4    37 1
    42     5    38 1
    43     7    39 1
    44     9    40 1
    45     9    41 1
    46     9    42 1
    47    10    43 1
    48    10    44 1
    49    10    45 1
    50    16    46 1
    51    17    47 1
    52    18    48 1
    53    19    49 1
    54    23    50 1
    55    25    51 1
    56    26    52 1
    57    27    53 1
    58    30    54 1
    59    31    55 1
    60    32    56 1
@<TRIPOS>SUBSTRUCTURE
     1 K4F         1 TEMP              0 ****  ****    0 ROOT
