@<TRIPOS>MOLECULE
molecule
   54    54     1     0     0
SMALL
bcc


@<TRIPOS>ATOM
      1 C10          0.0000     0.0000     0.0000 c3         1 K4G      -0.072400
      2 C15         -4.2510     0.0000     2.4730 c          1 K4G       0.644100
      3 C20         -8.7930    -0.1760     4.0370 c3         1 K4G       0.138400
      4 C22         -7.2650     0.9520     2.7590 c          1 K4G       0.727600
      5 C01          9.6880     0.0000    -5.7710 c3         1 K4G      -0.092100
      6 C02          8.1580     0.0000    -5.7710 c3         1 K4G      -0.084400
      7 C03          7.6490    -0.0000    -4.3290 c3         1 K4G      -0.081400
      8 C04          6.1190    -0.0000    -4.3290 c3         1 K4G      -0.082400
      9 C05          5.6090    -0.0000    -2.8860 c3         1 K4G      -0.082400
     10 C07          3.5690    -0.0000    -1.4430 c3         1 K4G      -0.082400
     11 C08          2.0390     0.0010    -1.4430 c3         1 K4G      -0.080400
     12 C09          1.5300     0.0000     0.0000 c3         1 K4G      -0.084400
     13 C11         -0.5100     0.0000     1.4430 c3         1 K4G      -0.179400
     14 C12         -2.0170     0.0000     1.4430 c          1 K4G       0.552100
     15 C14         -2.7710     0.0000     2.7480 c3         1 K4G      -0.269400
     16 C18         -6.6940    -0.4500     2.8680 c3         1 K4G       0.034700
     17 C19         -7.5710    -1.1130     3.9550 c3         1 K4G      -0.140400
     18 N17         -5.1280    -0.0000     3.4980 ns         1 K4G      -0.609900
     19 O13         -2.6220     0.0010     0.3970 o          1 K4G      -0.462100
     20 O16         -4.6560     0.0010     1.3300 o          1 K4G      -0.556100
     21 O21         -8.5740     0.8720     3.0500 os         1 K4G      -0.416900
     22 H1          -0.3610    -0.8840    -0.5110 hc         1 K4G       0.057200
     23 H2          -0.3610     0.8840    -0.5110 hc         1 K4G       0.057200
     24 H3          -8.8620     0.2570     5.0280 h1         1 K4G       0.066200
     25 H4          -9.6970    -0.7240     3.8010 h1         1 K4G       0.066200
     26 H5          10.0490    -0.8840    -5.2610 hc         1 K4G       0.032367
     27 H6          10.0490     0.0010    -6.7930 hc         1 K4G       0.032367
     28 H7          10.0490     0.8850    -5.2600 hc         1 K4G       0.032367
     29 H8           7.7970     0.8850    -6.2820 hc         1 K4G       0.039700
     30 H9           7.7970    -0.8840    -6.2820 hc         1 K4G       0.039700
     31 H10          8.0100    -0.8850    -3.8180 hc         1 K4G       0.040700
     32 H11          8.0100     0.8840    -3.8180 hc         1 K4G       0.040700
     33 H12          5.7580    -0.8850    -4.8390 hc         1 K4G       0.041200
     34 H13          5.7580     0.8840    -4.8390 hc         1 K4G       0.041200
     35 H14          5.9700    -0.8850    -2.3750 hc         1 K4G       0.040700
     36 H15          5.9700     0.8840    -2.3750 hc         1 K4G       0.040700
     37 H16          3.7180     0.8840    -3.3970 hc         1 K4G       0.042200
     38 H17          3.7180    -0.8850    -3.3970 hc         1 K4G       0.042200
     39 H18          3.9290    -0.8850    -0.9330 hc         1 K4G       0.040200
     40 H19          3.9300     0.8840    -0.9320 hc         1 K4G       0.040200
     41 H20          1.6780     0.8860    -1.9530 hc         1 K4G       0.044200
     42 H21          1.6770    -0.8830    -1.9540 hc         1 K4G       0.044200
     43 H22          1.8910     0.8840     0.5110 hc         1 K4G       0.038200
     44 H23          1.8910    -0.8850     0.5100 hc         1 K4G       0.038200
     45 H24         -0.1490    -0.8850     1.9530 hc         1 K4G       0.060200
     46 H25         -0.1490     0.8840     1.9530 hc         1 K4G       0.060200
     47 H26         -2.5090     0.8850     3.3170 hc         1 K4G       0.077700
     48 H27         -2.5090    -0.8840     3.3160 hc         1 K4G       0.077700
     49 H28         -6.7980    -0.9750     1.9260 h1         1 K4G       0.135700
     50 H29         -7.8730    -2.1070     3.6470 hc         1 K4G       0.070700
     51 H30         -7.0470    -1.1400     4.9030 hc         1 K4G       0.070700
     52 H31         -4.7940    -0.0190     4.4410 hn         1 K4G       0.318500
     53 O23         -6.6540     1.9530     2.4660 o          1 K4G      -0.509500
     54 C06          4.0790    -0.0000    -2.8860 c3         1 K4G      -0.081400
@<TRIPOS>BOND
     1    53     4 2
     2    21     4 1
     3    21     3 1
     4     4    16 1
     5    19    14 2
     6     3    17 1
     7     1    12 1
     8     1    13 1
     9    16    17 1
    10    16    18 1
    11    12    11 1
    12    11    10 1
    13    14    13 1
    14    14    15 1
    15    18     2 1
    16    20     2 2
    17     2    15 1
    18    10    54 1
    19    54     9 1
    20     9     8 1
    21     8     7 1
    22     7     6 1
    23     6     5 1
    24     1    22 1
    25     1    23 1
    26     3    24 1
    27     3    25 1
    28     5    26 1
    29     5    27 1
    30     5    28 1
    31     6    29 1
    32     6    30 1
    33     7    31 1
    34     7    32 1
    35     8    33 1
    36     8    34 1
    37     9    35 1
    38     9    36 1
    39    54    37 1
    40    54    38 1
    41    10    39 1
    42    10    40 1
    43    11    41 1
    44    11    42 1
    45    12    43 1
    46    12    44 1
    47    13    45 1
    48    13    46 1
    49    15    47 1
    50    15    48 1
    51    16    49 1
    52    17    50 1
    53    17    51 1
    54    18    52 1
@<TRIPOS>SUBSTRUCTURE
     1 K4G         1 TEMP              0 ****  ****    0 ROOT
