@<TRIPOS>MOLECULE
K4G
   54    54     1     0     0
SMALL
bcc


@<TRIPOS>ATOM
      1 C10          0.0000     0.0000     0.0000 c3         1 K4G      -0.020400
      2 C15         -4.2510     0.0000     2.4730 c          1 K4G       0.577100
      3 C20         -8.7930    -0.1760     4.0370 c3         1 K4G       0.224400
      4 C22         -7.2650     0.9520     2.7590 c          1 K4G       0.778600
      5 C01          9.6880     0.0000    -5.7710 c3         1 K4G       0.005900
      6 C02          8.1580     0.0000    -5.7710 c3         1 K4G      -0.028400
      7 C03          7.6490    -0.0000    -4.3290 c3         1 K4G      -0.030400
      8 C04          6.1190    -0.0000    -4.3290 c3         1 K4G      -0.029400
      9 C05          5.6090    -0.0000    -2.8860 c3         1 K4G      -0.029400
     10 C07          3.5690    -0.0000    -1.4430 c3         1 K4G      -0.029400
     11 C08          2.0390     0.0010    -1.4430 c3         1 K4G      -0.028400
     12 C09          1.5300     0.0000     0.0000 c3         1 K4G      -0.030400
     13 C11         -0.5100     0.0000     1.4430 c3         1 K4G      -0.119400
     14 C12         -2.0170     0.0000     1.4430 c          1 K4G       0.582100
     15 C14         -2.7710     0.0000     2.7480 c3         1 K4G      -0.199400
     16 C18         -6.6940    -0.4500     2.8680 c3         1 K4G      -0.029300
     17 C19         -7.5710    -1.1130     3.9550 c3         1 K4G      -0.082400
     18 N17         -5.1280    -0.0000     3.4980 ns         1 K4G      -0.270900
     19 O13         -2.6220     0.0010     0.3970 o          1 K4G      -0.488100
     20 O16         -4.6560     0.0010     1.3300 o          1 K4G      -0.580100
     21 O21         -8.5740     0.8720     3.0500 os         1 K4G      -0.407900
     22 H1          -0.3610    -0.8840    -0.5110 hc         1 K4G       0.029200
     23 H2          -0.3610     0.8840    -0.5110 hc         1 K4G       0.029200
     24 H3          -8.8620     0.2570     5.0280 h1         1 K4G       0.018700
     25 H4          -9.6970    -0.7240     3.8010 h1         1 K4G       0.018700
     26 H5          10.0490    -0.8840    -5.2610 hc         1 K4G       0.000033
     27 H6          10.0490     0.0010    -6.7930 hc         1 K4G       0.000033
     28 H7          10.0490     0.8850    -5.2600 hc         1 K4G       0.000033
     29 H8           7.7970     0.8850    -6.2820 hc         1 K4G       0.012200
     30 H9           7.7970    -0.8840    -6.2820 hc         1 K4G       0.012200
     31 H10          8.0100    -0.8850    -3.8180 hc         1 K4G       0.014700
     32 H11          8.0100     0.8840    -3.8180 hc         1 K4G       0.014700
     33 H12          5.7580    -0.8850    -4.8390 hc         1 K4G       0.014700
     34 H13          5.7580     0.8840    -4.8390 hc         1 K4G       0.014700
     35 H14          5.9700    -0.8850    -2.3750 hc         1 K4G       0.014200
     36 H15          5.9700     0.8840    -2.3750 hc         1 K4G       0.014200
     37 H16          3.7180     0.8840    -3.3970 hc         1 K4G       0.015700
     38 H17          3.7180    -0.8850    -3.3970 hc         1 K4G       0.015700
     39 H18          3.9290    -0.8850    -0.9330 hc         1 K4G       0.013700
     40 H19          3.9300     0.8840    -0.9320 hc         1 K4G       0.013700
     41 H20          1.6780     0.8860    -1.9530 hc         1 K4G       0.017200
     42 H21          1.6770    -0.8830    -1.9540 hc         1 K4G       0.017200
     43 H22          1.8910     0.8840     0.5110 hc         1 K4G       0.011700
     44 H23          1.8910    -0.8850     0.5100 hc         1 K4G       0.011700
     45 H24         -0.1490    -0.8850     1.9530 hc         1 K4G       0.029200
     46 H25         -0.1490     0.8840     1.9530 hc         1 K4G       0.029200
     47 H26         -2.5090     0.8850     3.3170 hc         1 K4G       0.043200
     48 H27         -2.5090    -0.8840     3.3160 hc         1 K4G       0.043200
     49 H28         -6.7980    -0.9750     1.9260 h1         1 K4G       0.094700
     50 H29         -7.8730    -2.1070     3.6470 hc         1 K4G       0.034700
     51 H30         -7.0470    -1.1400     4.9030 hc         1 K4G       0.034700
     52 H31         -4.7940    -0.0190     4.4410 hn         1 K4G       0.190500
     53 O23         -6.6540     1.9530     2.4660 o          1 K4G      -0.559500
     54 C06          4.0790    -0.0000    -2.8860 c3         1 K4G      -0.029400
@<TRIPOS>BOND
     1     1    12 1   
     2     1    13 1   
     3     1    22 1   
     4     1    23 1   
     5     2    15 1   
     6     2    18 1   
     7     2    20 2   
     8     3    17 1   
     9     3    21 1   
    10     3    24 1   
    11     3    25 1   
    12     4    16 1   
    13     4    21 1   
    14     4    53 2   
    15     5     6 1   
    16     5    26 1   
    17     5    27 1   
    18     5    28 1   
    19     6     7 1   
    20     6    29 1   
    21     6    30 1   
    22     7     8 1   
    23     7    31 1   
    24     7    32 1   
    25     8     9 1   
    26     8    33 1   
    27     8    34 1   
    28     9    35 1   
    29     9    36 1   
    30     9    54 1   
    31    10    11 1   
    32    10    39 1   
    33    10    40 1   
    34    10    54 1   
    35    11    12 1   
    36    11    41 1   
    37    11    42 1   
    38    12    43 1   
    39    12    44 1   
    40    13    14 1   
    41    13    45 1   
    42    13    46 1   
    43    14    15 1   
    44    14    19 2   
    45    15    47 1   
    46    15    48 1   
    47    16    17 1   
    48    16    18 1   
    49    16    49 1   
    50    17    50 1   
    51    17    51 1   
    52    18    52 1   
    53    37    54 1   
    54    38    54 1   
@<TRIPOS>SUBSTRUCTURE
     1 K4G         1 TEMP              0 ****  ****    0 ROOT
