@<TRIPOS>MOLECULE
molecule
   20    20     1     0     0
SMALL
bcc


@<TRIPOS>ATOM
      1 C1           0.0000     0.0000     0.0000 ca         1 K4V      -0.160200
      2 C2           1.3830     0.0000     0.0000 ca         1 K4V      -0.056500
      3 C3           2.0750     0.0000     1.1960 ca         1 K4V      -0.140000
      4 C4           1.3820     0.0020     2.3970 ca         1 K4V       0.154100
      5 C5          -0.0060     0.0030     2.3950 ca         1 K4V      -0.140000
      6 C6          -0.6930     0.0020     1.1960 ca         1 K4V      -0.056500
      7 C15          2.7370     1.1190     3.8880 c          1 K4V       0.629100
      8 C16          3.6170     1.1470     5.1110 c3         1 K4V      -0.136100
      9 N10         -0.7380     0.0050    -1.2820 no         1 K4V       0.294200
     10 O11         -0.1280     0.0090    -2.3370 o          1 K4V      -0.204000
     11 O13         -1.9560     0.0060    -1.2840 o          1 K4V      -0.204000
     12 O14          2.0600     0.0020     3.5750 os         1 K4V      -0.345200
     13 O17          2.6400     2.1000     3.1890 o          1 K4V      -0.520000
     14 H1           1.9240    -0.0010    -0.9380 ha         1 K4V       0.171000
     15 H2           3.1590    -0.0000     1.1950 ha         1 K4V       0.158000
     16 H3          -0.5500     0.0040     3.3320 ha         1 K4V       0.158000
     17 H4          -1.7760     0.0020     1.1940 ha         1 K4V       0.171000
     18 H5           4.2190     0.2470     5.1440 hc         1 K4V       0.075367
     19 H6           2.9990     1.2010     5.9990 hc         1 K4V       0.075367
     20 H7           4.2650     2.0140     5.0690 hc         1 K4V       0.075367
@<TRIPOS>BOND
     1    10     9 1
     2    11     9 1
     3     9     1 1
     4     6     1 ar
     5     6     5 ar
     6     1     2 ar
     7     5     4 ar
     8     8     7 1
     9     2     3 ar
    10     4     3 ar
    11     4    12 1
    12     7    12 1
    13     7    13 2
    14     2    14 1
    15     3    15 1
    16     5    16 1
    17     6    17 1
    18     8    18 1
    19     8    19 1
    20     8    20 1
@<TRIPOS>SUBSTRUCTURE
     1 K4V         1 TEMP              0 ****  ****    0 ROOT
