@<TRIPOS>MOLECULE
K51
   43    45     1     0     0
SMALL
bcc


@<TRIPOS>ATOM
      1 N4          -1.2930    -0.0190    -2.2180 n1         1 K51      -0.390800
      2 C13         -0.7170    -0.0010    -1.2390 cg         1 K51       0.236800
      3 C10          0.0000     0.0000     0.0000 ca         1 K51       0.009000
      4 C11          1.3990     0.0000     0.0000 ca         1 K51      -0.062000
      5 C12          2.0820     0.0000     1.1820 ca         1 K51      -0.118500
      6 C7           1.3830     0.0010     2.3940 ca         1 K51       0.040200
      7 C8          -0.0150     0.0010     2.3940 ca         1 K51      -0.118500
      8 C9          -0.6990     0.0060     1.2130 ca         1 K51      -0.062000
      9 C5           2.1210     0.0020     3.6710 cc         1 K51      -0.304300
     10 C6           3.4890     0.1040     3.8320 cd         1 K51       0.034600
     11 N3           3.7570     0.0670     5.1320 nd         1 K51      -0.206600
     12 C1           2.6230    -0.0550     5.8160 cc         1 K51      -0.332300
     13 C2           2.3540    -0.1390     7.1950 cc         1 K51       0.073000
     14 C3           1.0660    -0.2620     7.6150 cd         1 K51      -0.316300
     15 C4           0.0190    -0.3030     6.6770 cd         1 K51       0.581200
     16 N1           0.2690    -0.2240     5.3910 nc         1 K51      -0.760800
     17 N2           1.5820    -0.0920     4.9280 na         1 K51       0.762200
     18 N5          -1.2950    -0.4280     7.1160 nu         1 K51      -0.467900
     19 C14         -2.3920    -0.4720     6.1440 c3         1 K51       0.126500
     20 C15         -3.6830     0.0060     6.8120 c3         1 K51       0.206400
     21 O1          -4.0550    -0.9110     7.8420 oh         1 K51      -0.595800
     22 C16         -2.5760    -1.9080     5.6480 c3         1 K51      -0.062700
     23 C17         -3.7200    -1.9530     4.6330 c3         1 K51      -0.012600
     24 C18         -1.2840    -2.3850     4.9800 c3         1 K51      -0.012600
     25 H11          1.9400    -0.0010    -0.9380 ha         1 K51       0.111000
     26 H12          3.1650    -0.0000     1.1810 ha         1 K51       0.131000
     27 H8          -0.5560     0.0040     3.3330 ha         1 K51       0.131000
     28 H9          -1.7830     0.0060     1.2140 ha         1 K51       0.111000
     29 H6           4.2170     0.1970     3.0360 h4         1 K51       0.146000
     30 H2           3.1640    -0.1070     7.9140 ha         1 K51       0.122000
     31 H3           0.8460    -0.3280     8.6740 ha         1 K51       0.128000
     32 HN5         -1.4950    -0.4500     8.0970 hn         1 K51       0.306800
     33 H14         -2.1580     0.1730     5.3060 h1         1 K51       0.060700
     34 H151        -4.4730     0.0590     6.0730 h1         1 K51      -0.000800
     35 H152        -3.5250     0.9880     7.2420 h1         1 K51      -0.000800
     36 HO1         -4.7720    -0.5530     8.3380 ho         1 K51       0.397000
     37 H16         -2.8100    -2.5530     6.4860 hc         1 K51       0.044700
     38 H171        -3.7530    -1.0190     4.0850 hc         1 K51       0.011367
     39 H172        -3.5580    -2.7710     3.9420 hc         1 K51       0.011367
     40 H173        -4.6590    -2.1000     5.1540 hc         1 K51       0.011367
     41 H181        -1.4610    -3.3330     4.4870 hc         1 K51       0.011367
     42 H182        -0.5130    -2.5080     5.7320 hc         1 K51       0.011367
     43 H183        -0.9630    -1.6520     4.2500 hc         1 K51       0.011367
@<TRIPOS>BOND
     1     1     2 3   
     2     2     3 1   
     3     3     4 ar  
     4     3     8 ar  
     5     4     5 ar  
     6     4    25 1   
     7     5     6 ar  
     8     5    26 1   
     9     6     7 ar  
    10     6     9 1   
    11     7     8 ar  
    12     7    27 1   
    13     8    28 1   
    14     9    10 2   
    15     9    17 1   
    16    10    11 1   
    17    10    29 1   
    18    11    12 2   
    19    12    13 1   
    20    12    17 1   
    21    13    14 2   
    22    13    30 1   
    23    14    15 1   
    24    14    31 1   
    25    15    16 2   
    26    15    18 1   
    27    16    17 1   
    28    18    19 1   
    29    18    32 1   
    30    19    20 1   
    31    19    22 1   
    32    19    33 1   
    33    20    21 1   
    34    20    34 1   
    35    20    35 1   
    36    21    36 1   
    37    22    23 1   
    38    22    24 1   
    39    22    37 1   
    40    23    38 1   
    41    23    39 1   
    42    23    40 1   
    43    24    41 1   
    44    24    42 1   
    45    24    43 1   
@<TRIPOS>SUBSTRUCTURE
     1 K51         1 TEMP              0 ****  ****    0 ROOT
