@<TRIPOS>MOLECULE
molecule
   79    83     1     0     0
SMALL
bcc


@<TRIPOS>ATOM
      1 C2           0.0000     0.0000     0.0000 ca         1 K53       0.100100
      2 C3           1.3920     0.0000     0.0000 ca         1 K53       0.022100
      3 C4           2.0810     0.0000     1.2030 ca         1 K53      -0.024000
      4 C5           1.3860     0.0010     2.3980 ca         1 K53      -0.318500
      5 C6           0.0040     0.0010     2.3970 ca         1 K53      -0.023000
      6 C7          -0.6900     0.0010     1.2020 ca         1 K53      -0.139000
      7 S8           2.2650     0.0030     3.9250 sy         1 K53       1.424200
      8 O9           1.3820    -0.5410     4.8960 o          1 K53      -0.630300
      9 O10          3.5480    -0.5420     3.6500 o          1 K53      -0.630300
     10 N11          2.5090     1.5840     4.3490 n3         1 K53      -0.811500
     11 C12          1.5170     2.2840     5.1690 c3         1 K53       0.237800
     12 C13          1.9260     2.2080     6.6420 c3         1 K53      -0.097700
     13 C14          0.9600     3.0430     7.4830 c3         1 K53      -0.086100
     14 C15          1.8820     0.7500     7.1080 c3         1 K53      -0.086100
     15 C16          3.7170     2.2840     3.9040 c3         1 K53       0.228800
     16 C17          3.4140     3.0560     2.6190 c3         1 K53       0.104100
     17 C18          0.6980     0.4180    -2.0800 c3         1 K53       0.329200
     18 O18          2.4610     4.0850     2.8940 oh         1 K53      -0.599800
     19 C19          4.7040     3.6850     2.0870 c3         1 K53       0.105700
     20 O19         -0.4360     0.0040    -1.2940 os         1 K53      -0.319900
     21 N20          4.4390     4.3220     0.7950 ns         1 K53      -0.587900
     22 C21          5.4410     4.4920    -0.0910 c          1 K53       0.644100
     23 O22          6.5610     4.1160     0.1810 o          1 K53      -0.539100
     24 N24          5.0140     3.9500    -3.4600 n          1 K53      -0.433000
     25 C25          4.2190     4.2790    -2.2680 c3         1 K53       0.067000
     26 C26          6.2220     4.5200    -3.3460 c          1 K53       0.835600
     27 O27          7.0880     4.4140    -4.1910 o          1 K53      -0.608500
     28 O28          6.3870     5.2170    -2.2160 os         1 K53      -0.337900
     29 C29          5.1670     5.1480    -1.4200 c3         1 K53       0.044100
     30 O29          1.8290    -0.0010    -1.2930 os         1 K53      -0.314900
     31 C32          5.2080     4.7340     3.0790 c3         1 K53      -0.045100
     32 C33          6.5930     6.3650     1.7810 ca         1 K53      -0.121000
     33 C34          7.8150     6.8520     1.3560 ca         1 K53      -0.115000
     34 C35          8.9840     6.2380     1.7660 ca         1 K53      -0.119000
     35 C36          8.9310     5.1380     2.6010 ca         1 K53      -0.115000
     36 C37          7.7090     4.6500     3.0260 ca         1 K53      -0.121000
     37 C38          6.5400     5.2640     2.6160 ca         1 K53      -0.077300
     38 C40          3.7290     1.6110    -6.6660 ca         1 K53      -0.090000
     39 C41          4.3570     1.0140    -5.5890 ca         1 K53      -0.200000
     40 C42          4.7860     1.7860    -4.5210 ca         1 K53       0.139100
     41 C43          4.5830     3.1640    -4.5360 ca         1 K53       0.049600
     42 C44          3.9510     3.7560    -5.6210 ca         1 K53      -0.092000
     43 C45          3.5260     2.9780    -6.6820 ca         1 K53      -0.153000
     44 H4           3.1640     0.0000     1.2060 ha         1 K53       0.165000
     45 H6          -0.5370     0.0020     3.3360 ha         1 K53       0.160000
     46 H7          -1.7730     0.0010     1.2040 ha         1 K53       0.152000
     47 H12          0.5480     1.8190     5.0390 h1         1 K53       0.059700
     48 H12A         1.4640     3.3220     4.8630 h1         1 K53       0.059700
     49 H13          2.9320     2.5930     6.7580 hc         1 K53       0.052700
     50 H14          1.2540     2.9950     8.5250 hc         1 K53       0.039033
     51 H14A         0.9860     4.0730     7.1480 hc         1 K53       0.039033
     52 H14B        -0.0450     2.6530     7.3740 hc         1 K53       0.039033
     53 H15          2.0020     0.7110     8.1840 hc         1 K53       0.039033
     54 H15A         0.9290     0.3130     6.8350 hc         1 K53       0.039033
     55 H15B         2.6830     0.1950     6.6350 hc         1 K53       0.039033
     56 H16          4.5030     1.5620     3.7160 h1         1 K53       0.082700
     57 H16A         4.0380     2.9750     4.6740 h1         1 K53       0.082700
     58 H17          3.0100     2.3780     1.8760 h1         1 K53       0.041700
     59 H18          0.7000     1.4940    -2.2050 h2         1 K53       0.072700
     60 H18A         0.6970    -0.0840    -3.0400 h2         1 K53       0.072700
     61 HO18         1.8220     4.1150     2.2010 ho         1 K53       0.399000
     62 H19          5.4560     2.9150     1.9620 h1         1 K53       0.094700
     63 HN20         3.5160     4.6430     0.5750 hn         1 K53       0.305500
     64 H25          3.4100     4.9210    -2.5950 h1         1 K53       0.075200
     65 H25A         4.0670     3.3550    -1.7240 h1         1 K53       0.075200
     66 H29          4.7500     6.1390    -1.2830 h1         1 K53       0.088700
     67 H32          5.3190     4.2810     4.0570 hc         1 K53       0.059700
     68 H32A         4.4960     5.5480     3.1370 hc         1 K53       0.059700
     69 H33          5.6770     6.8460     1.4600 ha         1 K53       0.120000
     70 H34          7.8570     7.7140     0.7020 ha         1 K53       0.126500
     71 H35          9.9420     6.6200     1.4330 ha         1 K53       0.128000
     72 H36          9.8470     4.6570     2.9220 ha         1 K53       0.126500
     73 H37          7.6680     3.7880     3.6800 ha         1 K53       0.120000
     74 H40          3.3940     1.0060    -7.4990 ha         1 K53       0.136000
     75 H41          4.5140    -0.0580    -5.5800 ha         1 K53       0.141000
     76 H44          3.7900     4.8280    -5.6360 ha         1 K53       0.143000
     77 H45          3.0330     3.4410    -7.5280 ha         1 K53       0.138000
     78 HO46         6.0040     0.5420    -3.7720 ho         1 K53       0.431000
     79 O46          5.4050     1.2010    -3.4610 oh         1 K53      -0.498100
@<TRIPOS>BOND
     1     1     2 ar
     2     1     6 ar
     3     1    20 1
     4     2     3 ar
     5     2    30 1
     6     3     4 ar
     7     4     5 ar
     8     4     7 1
     9     5     6 ar
    10     7     8 2
    11     7     9 2
    12     7    10 1
    13    10    11 1
    14    10    15 1
    15    11    12 1
    16    12    13 1
    17    12    14 1
    18    15    16 1
    19    16    18 1
    20    16    19 1
    21    17    20 1
    22    17    30 1
    23    19    21 1
    24    19    31 1
    25    21    22 1
    26    22    23 2
    27    22    29 1
    28    24    25 1
    29    24    26 1
    30    24    41 1
    31    25    29 1
    32    26    27 2
    33    26    28 1
    34    28    29 1
    35    31    37 1
    36    32    33 ar
    37    32    37 ar
    38    33    34 ar
    39    34    35 ar
    40    35    36 ar
    41    36    37 ar
    42    38    39 ar
    43    38    43 ar
    44    39    40 ar
    45    40    41 ar
    46    40    79 1
    47    41    42 ar
    48    42    43 ar
    49     3    44 1
    50     5    45 1
    51     6    46 1
    52    11    47 1
    53    11    48 1
    54    12    49 1
    55    13    50 1
    56    13    51 1
    57    13    52 1
    58    14    53 1
    59    14    54 1
    60    14    55 1
    61    15    56 1
    62    15    57 1
    63    16    58 1
    64    17    59 1
    65    17    60 1
    66    18    61 1
    67    19    62 1
    68    21    63 1
    69    25    64 1
    70    25    65 1
    71    29    66 1
    72    31    67 1
    73    31    68 1
    74    32    69 1
    75    33    70 1
    76    34    71 1
    77    35    72 1
    78    36    73 1
    79    38    74 1
    80    39    75 1
    81    42    76 1
    82    43    77 1
    83    79    78 1
@<TRIPOS>SUBSTRUCTURE
     1 K53         1 TEMP              0 ****  ****    0 ROOT
