@<TRIPOS>MOLECULE
K54
   80    84     1     0     0
SMALL
bcc


@<TRIPOS>ATOM
      1 C1           0.0000     0.0000     0.0000 cc         1 K54       0.434100
      2 F1          -4.4180     0.2290     3.1030 f          1 K54      -0.203967
      3 N1           1.2790     0.0000     0.0000 nd         1 K54      -0.456100
      4 S1          -0.6260    -0.0010     1.5870 ss         1 K54      -0.187100
      5 C2           1.9090     0.0000     1.1910 ca         1 K54       0.110400
      6 F2          -2.8350    -1.3950     3.3770 f          1 K54      -0.203967
      7 C3           1.0030    -0.0010     2.2570 ca         1 K54      -0.064100
      8 F3          -4.9290    -1.6830     4.2440 f          1 K54      -0.203967
      9 C4           1.4650    -0.0000     3.5710 ca         1 K54       0.065000
     10 C5           2.8170     0.0010     3.8250 ca         1 K54      -0.159500
     11 C6           3.7220     0.0010     2.7710 ca         1 K54      -0.010000
     12 C7           3.2880    -0.0000     1.4810 ca         1 K54      -0.070000
     13 S8           3.4030     0.0000     5.4860 sy         1 K54       1.047200
     14 O9           4.7140     0.5470     5.4500 o          1 K54      -0.580800
     15 O10          2.3560     0.5440     6.2800 o          1 K54      -0.580800
     16 N11          3.5660    -1.5810     5.9490 n3         1 K54      -0.518500
     17 C12          4.8360    -2.2790     5.7320 c3         1 K54       0.228800
     18 C13          5.6840    -2.2010     7.0030 c3         1 K54      -0.076700
     19 C14          6.9540    -3.0360     6.8200 c3         1 K54      -0.002600
     20 C15          6.0660    -0.7440     7.2720 c3         1 K54      -0.002600
     21 C16          2.4420    -2.2820     6.5750 c3         1 K54       0.206800
     22 C17          1.6660    -3.0550     5.5070 c3         1 K54       0.144100
     23 O18          2.4970    -4.0830     4.9640 oh         1 K54      -0.579800
     24 C19          0.4220    -3.6840     6.1370 c3         1 K54       0.004700
     25 N20         -0.3840    -4.3240     5.0940 ns         1 K54      -0.193900
     26 C21         -1.7090    -4.4950     5.2750 c          1 K54       0.547100
     27 O22         -2.2340    -4.1190     6.3020 o          1 K54      -0.579100
     28 N24         -3.9850    -3.9560     2.7550 n          1 K54      -0.113000
     29 C25         -2.5610    -4.2840     2.9290 c3         1 K54      -0.001000
     30 C26         -4.6850    -4.5270     3.7450 c          1 K54       0.778600
     31 O27         -5.8910    -4.4210     3.8500 o          1 K54      -0.650500
     32 O28         -3.9350    -5.2230     4.6070 os         1 K54      -0.320900
     33 C29         -2.5380    -5.1530     4.2020 c3         1 K54       0.087100
     34 C32          0.8470    -4.7330     7.1670 c3         1 K54       0.013900
     35 C33         -1.0380    -6.3670     7.3710 ca         1 K54      -0.097000
     36 C34         -2.1580    -6.8540     8.0200 ca         1 K54      -0.086000
     37 C35         -2.6100    -6.2410     9.1730 ca         1 K54      -0.092000
     38 C36         -1.9440    -5.1390     9.6780 ca         1 K54      -0.086000
     39 C37         -0.8250    -4.6510     9.0280 ca         1 K54      -0.097000
     40 C38         -0.3730    -5.2640     7.8750 ca         1 K54      -0.086300
     41 C40         -5.5760    -1.6220    -0.3070 ca         1 K54      -0.096000
     42 C41         -5.1690    -1.0280     0.8740 ca         1 K54      -0.044000
     43 C42         -4.6420    -1.7990     1.8910 ca         1 K54      -0.195300
     44 C43         -4.5200    -3.1720     1.7270 ca         1 K54       0.019600
     45 C44         -4.9290    -3.7660     0.5390 ca         1 K54      -0.094000
     46 C45         -5.4550    -2.9900    -0.4730 ca         1 K54      -0.063000
     47 H1          -0.6090     0.0010    -0.8960 h5         1 K54       0.031800
     48 H4           0.7590    -0.0010     4.3930 ha         1 K54       0.134000
     49 H6           4.7850     0.0020     2.9780 ha         1 K54       0.129000
     50 H7           4.0080     0.0000     0.6710 ha         1 K54       0.121000
     51 H12          5.3690    -1.8130     4.9130 h1         1 K54       0.027700
     52 H12A         4.6410    -3.3180     5.4920 h1         1 K54       0.027700
     53 H13          5.1170    -2.5870     7.8410 hc         1 K54       0.026700
     54 H14          7.5470    -2.9950     7.7260 hc         1 K54       0.009867
     55 H14A         6.6840    -4.0640     6.6110 hc         1 K54       0.009867
     56 H14B         7.5310    -2.6390     5.9930 hc         1 K54       0.009867
     57 H15          6.4190    -0.2870     6.3560 hc         1 K54       0.009867
     58 H15A         5.1990    -0.2050     7.6340 hc         1 K54       0.009867
     59 H15B         6.8510    -0.7080     8.0190 hc         1 K54       0.009867
     60 H16          1.7850    -1.5610     7.0470 h1         1 K54       0.050700
     61 H16A         2.8170    -2.9730     7.3200 h1         1 K54       0.050700
     62 H17          1.3670    -2.3780     4.7160 h1         1 K54       0.006700
     63 HO18         2.4740    -4.0420     4.0220 ho         1 K54       0.387000
     64 H19         -0.1640    -2.9150     6.6260 h1         1 K54       0.071700
     65 HN20         0.0480    -4.6240     4.2420 hn         1 K54       0.167500
     66 H25         -2.2820    -4.9260     2.1030 h1         1 K54       0.048200
     67 H25A        -2.0510    -3.3590     3.1690 h1         1 K54       0.048200
     68 H29         -2.1600    -6.1430     3.9760 h1         1 K54       0.047700
     69 H32          1.5140    -4.2800     7.8900 hc         1 K54       0.032200
     70 H32A         1.3560    -5.5470     6.6650 hc         1 K54       0.032200
     71 H33         -0.6840    -6.8470     6.4680 ha         1 K54       0.096500
     72 H34         -2.6790    -7.7180     7.6250 ha         1 K54       0.099500
     73 H35         -3.4870    -6.6230     9.6820 ha         1 K54       0.101000
     74 H36         -2.2990    -4.6580    10.5820 ha         1 K54       0.099500
     75 H37         -0.3030    -3.7880     9.4230 ha         1 K54       0.096500
     76 H40         -5.9900    -1.0150    -1.1030 ha         1 K54       0.112000
     77 H41         -5.2650     0.0440     1.0010 ha         1 K54       0.125000
     78 H44         -4.8340    -4.8370     0.4080 ha         1 K54       0.117000
     79 H45         -5.7750    -3.4520    -1.3990 ha         1 K54       0.109000
     80 C46         -4.1980    -1.1500     3.1770 c3         1 K54       0.646200
@<TRIPOS>BOND
     1     1     3 2   
     2     1     4 1   
     3     1    47 1   
     4     2    80 1   
     5     3     5 1   
     6     4     7 1   
     7     5     7 ar  
     8     5    12 ar  
     9     6    80 1   
    10     7     9 ar  
    11     8    80 1   
    12     9    10 ar  
    13     9    48 1   
    14    10    11 ar  
    15    10    13 1   
    16    11    12 ar  
    17    11    49 1   
    18    12    50 1   
    19    13    14 2   
    20    13    15 2   
    21    13    16 1   
    22    16    17 1   
    23    16    21 1   
    24    17    18 1   
    25    17    51 1   
    26    17    52 1   
    27    18    19 1   
    28    18    20 1   
    29    18    53 1   
    30    19    54 1   
    31    19    55 1   
    32    19    56 1   
    33    20    57 1   
    34    20    58 1   
    35    20    59 1   
    36    21    22 1   
    37    21    60 1   
    38    21    61 1   
    39    22    23 1   
    40    22    24 1   
    41    22    62 1   
    42    23    63 1   
    43    24    25 1   
    44    24    34 1   
    45    24    64 1   
    46    25    26 1   
    47    25    65 1   
    48    26    27 2   
    49    26    33 1   
    50    28    29 1   
    51    28    30 1   
    52    28    44 1   
    53    29    33 1   
    54    29    66 1   
    55    29    67 1   
    56    30    31 2   
    57    30    32 1   
    58    32    33 1   
    59    33    68 1   
    60    34    40 1   
    61    34    69 1   
    62    34    70 1   
    63    35    36 ar  
    64    35    40 ar  
    65    35    71 1   
    66    36    37 ar  
    67    36    72 1   
    68    37    38 ar  
    69    37    73 1   
    70    38    39 ar  
    71    38    74 1   
    72    39    40 ar  
    73    39    75 1   
    74    41    42 ar  
    75    41    46 ar  
    76    41    76 1   
    77    42    43 ar  
    78    42    77 1   
    79    43    44 ar  
    80    43    80 1   
    81    44    45 ar  
    82    45    46 ar  
    83    45    78 1   
    84    46    79 1   
@<TRIPOS>SUBSTRUCTURE
     1 K54         1 TEMP              0 ****  ****    0 ROOT
