@<TRIPOS>MOLECULE
K55
   59    60     1     0     0
SMALL
bcc


@<TRIPOS>ATOM
      1 O25          0.0000     0.0000     0.0000 o          1 K55      -0.894800
      2 O26          1.9470     0.0030    -1.0460 o          1 K55      -0.894800
      3 C1           1.3430     0.0000     0.0000 c          1 K55       0.980600
      4 C2           2.0960     0.0000     1.3060 c3         1 K55      -0.158700
      5 C3           3.6000    -0.0000     1.0260 c3         1 K55      -0.005400
      6 C4           3.9900    -1.3070     0.3340 c3         1 K55       0.006900
      7 C5           1.7260     1.2500     2.1080 c3         1 K55       0.057900
      8 C6           0.2690     1.1900     2.4880 ca         1 K55      -0.090300
      9 C7          -0.1100     0.5960     3.6770 ca         1 K55      -0.058000
     10 C8          -1.4440     0.5390     4.0290 ca         1 K55      -0.208300
     11 C9          -2.4050     1.0790     3.1870 ca         1 K55       0.144100
     12 C10         -2.0230     1.6750     1.9930 ca         1 K55      -0.222000
     13 C11         -0.6860     1.7340     1.6490 ca         1 K55       0.063000
     14 O33         -3.7190     1.0240     3.5300 os         1 K55      -0.320900
     15 C21         -4.6530     1.6010     2.6140 c3         1 K55       0.200400
     16 C22         -6.0710     1.4450     3.1670 c3         1 K55      -0.037400
     17 C23         -7.0710     2.0620     2.1870 c3         1 K55      -0.024400
     18 C24         -8.4890     1.9060     2.7390 c3         1 K55       0.006900
     19 C12         -1.8560    -0.1090     5.3250 c3         1 K55       0.129300
     20 N27         -2.3370    -1.4680     5.0610 ns         1 K55      -0.161900
     21 C13         -2.7600    -2.2420     6.0790 c          1 K55       0.571700
     22 O28         -2.7450    -1.8130     7.2170 o          1 K55      -0.652100
     23 C14         -3.2440    -3.6120     5.8140 ca         1 K55      -0.140600
     24 C15         -3.6850    -4.4180     6.8670 ca         1 K55       0.166900
     25 C16         -4.1360    -5.7010     6.6090 ca         1 K55      -0.101000
     26 C17         -4.1510    -6.1820     5.3140 ca         1 K55      -0.179300
     27 C18         -3.7150    -5.3880     4.2670 ca         1 K55      -0.065000
     28 C19         -3.2690    -4.1060     4.5080 ca         1 K55      -0.062000
     29 C20         -4.6440    -7.5800     5.0400 c3         1 K55       0.638200
     30 F29         -3.6690    -3.9480     8.1330 f          1 K55      -0.105900
     31 F30         -6.0220    -7.5490     4.7970 f          1 K55      -0.208300
     32 F31         -3.9850    -8.0960     3.9190 f          1 K55      -0.208300
     33 F32         -4.3840    -8.3920     6.1490 f          1 K55      -0.208300
     34 H2           1.8340    -0.8840     1.8740 hc         1 K55       0.025700
     35 H3           4.1410     0.0890     1.9600 hc         1 K55      -0.002300
     36 H3A          3.8480     0.8360     0.3840 hc         1 K55      -0.002300
     37 H4           4.1580    -1.1220    -0.7200 hc         1 K55      -0.002633
     38 H4A          3.1910    -2.0300     0.4510 hc         1 K55      -0.002633
     39 H4B          4.8960    -1.6960     0.7820 hc         1 K55      -0.002633
     40 H5           2.3320     1.2950     3.0050 hc         1 K55      -0.000300
     41 H5A          1.9060     2.1320     1.5050 hc         1 K55      -0.000300
     42 H7           0.6410     0.1740     4.3350 ha         1 K55       0.098000
     43 H10         -2.7720     2.0990     1.3350 ha         1 K55       0.111000
     44 H11         -0.3870     2.1990     0.7170 ha         1 K55       0.129000
     45 H21         -4.5800     1.0960     1.6580 h1         1 K55       0.005200
     46 H21A        -4.4290     2.6530     2.4840 h1         1 K55       0.005200
     47 H22         -6.2950     0.3930     3.2970 hc         1 K55       0.020200
     48 H22A        -6.1440     1.9500     4.1220 hc         1 K55       0.020200
     49 H23         -6.9990     1.5560     1.2310 hc         1 K55       0.012700
     50 H23A        -6.8480     3.1140     2.0570 hc         1 K55       0.012700
     51 H24         -8.7120     0.8540     2.8690 hc         1 K55      -0.001633
     52 H24A        -8.5610     2.4110     3.6950 hc         1 K55      -0.001633
     53 H24B        -9.1970     2.3430     2.0460 hc         1 K55      -0.001633
     54 H12         -1.0050    -0.1500     5.9940 h1         1 K55       0.024200
     55 H12A        -2.6470     0.4720     5.7840 h1         1 K55       0.024200
     56 HN27        -2.3180    -1.8330     4.1300 hn         1 K55       0.188500
     57 H16         -4.4780    -6.3280     7.4230 ha         1 K55       0.130000
     58 H18         -3.7330    -5.7720     3.2540 ha         1 K55       0.124000
     59 H19         -2.9280    -3.4860     3.6870 ha         1 K55       0.130000
@<TRIPOS>BOND
     1     1     3 1   
     2     2     3 1   
     3     3     4 1   
     4     4     5 1   
     5     4     7 1   
     6     4    34 1   
     7     5     6 1   
     8     5    35 1   
     9     5    36 1   
    10     6    37 1   
    11     6    38 1   
    12     6    39 1   
    13     7     8 1   
    14     7    40 1   
    15     7    41 1   
    16     8     9 ar  
    17     8    13 ar  
    18     9    10 ar  
    19     9    42 1   
    20    10    11 ar  
    21    10    19 1   
    22    11    12 ar  
    23    11    14 1   
    24    12    13 ar  
    25    12    43 1   
    26    13    44 1   
    27    14    15 1   
    28    15    16 1   
    29    15    45 1   
    30    15    46 1   
    31    16    17 1   
    32    16    47 1   
    33    16    48 1   
    34    17    18 1   
    35    17    49 1   
    36    17    50 1   
    37    18    51 1   
    38    18    52 1   
    39    18    53 1   
    40    19    20 1   
    41    19    54 1   
    42    19    55 1   
    43    20    21 1   
    44    20    56 1   
    45    21    22 2   
    46    21    23 1   
    47    23    24 ar  
    48    23    28 ar  
    49    24    25 ar  
    50    24    30 1   
    51    25    26 ar  
    52    25    57 1   
    53    26    27 ar  
    54    26    29 1   
    55    27    28 ar  
    56    27    58 1   
    57    28    59 1   
    58    29    31 1   
    59    29    32 1   
    60    29    33 1   
@<TRIPOS>SUBSTRUCTURE
     1 K55         1 TEMP              0 ****  ****    0 ROOT
