@<TRIPOS>MOLECULE
K56
   59    63     1     0     0
SMALL
bcc


@<TRIPOS>ATOM
      1 O3           0.0000     0.0000     0.0000 o          1 K56      -0.741500
      2 C18          1.2160     0.0000     0.0000 c          1 K56       0.614500
      3 N5           1.8530     0.0000     1.1780 ns         1 K56      -0.018100
      4 C20          3.2450     0.0010     1.2870 ca         1 K56      -0.067400
      5 C22          3.8580    -0.0000     2.5330 ca         1 K56      -0.146000
      6 C24          5.2360     0.0020     2.6220 ca         1 K56      -0.061000
      7 C23          6.0090     0.0030     1.4750 ca         1 K56      -0.130000
      8 C21          5.4030     0.0040     0.2300 ca         1 K56      -0.054000
      9 C19          4.0300     0.0020     0.1410 ca         1 K56      -0.145300
     10 C17          3.3310     0.0030    -1.2000 c3         1 K56       0.116300
     11 N4           1.8580    -0.0030    -1.1820 n          1 K56      -0.153800
     12 C16          1.1020    -0.0030    -2.4370 c3         1 K56       0.076000
     13 C14          0.8440    -1.4460    -2.8780 c3         1 K56      -0.075700
     14 C11          0.1610    -1.4490    -4.2480 c3         1 K56      -0.025900
     15 C7          -0.1480    -2.8910    -4.6540 c3         1 K56       0.153300
     16 C12         -0.0670    -2.1370    -1.8590 c3         1 K56      -0.025900
     17 C8          -0.3700    -3.5600    -2.3350 c3         1 K56       0.153300
     18 N1          -1.0240    -3.5080    -3.6500 nh         1 K56      -0.515300
     19 C2          -1.4290    -4.7650    -4.0510 ca         1 K56       0.543200
     20 N2          -0.5450    -5.7340    -4.2450 nb         1 K56      -0.674000
     21 C9          -0.9180    -6.9440    -4.6290 ca         1 K56       0.631900
     22 N3          -2.1710    -7.2680    -4.8450 nb         1 K56      -0.622000
     23 C3          -3.1470    -6.3620    -4.6790 ca         1 K56       0.413600
     24 C1          -2.7970    -5.0540    -4.2620 ca         1 K56      -0.244600
     25 C5          -4.4940    -6.6770    -4.9010 ca         1 K56      -0.263300
     26 C10         -5.4560    -5.7100    -4.7160 ca         1 K56       0.165100
     27 O2          -6.7620    -6.0130    -4.9300 os         1 K56      -0.290900
     28 C15         -7.0600    -7.3480    -5.3430 c3         1 K56       0.239700
     29 C6          -5.1020    -4.4150    -4.3090 ca         1 K56       0.126100
     30 C4          -3.7960    -4.0890    -4.0800 ca         1 K56      -0.154000
     31 O1          -6.0700    -3.4770    -4.1330 os         1 K56      -0.293900
     32 C13         -5.6460    -2.1770    -3.7180 c3         1 K56       0.238700
     33 H1           1.3080    -0.0000     2.0160 hn         1 K56       0.186500
     34 H2           3.2560    -0.0010     3.4340 ha         1 K56       0.112000
     35 H3           5.7140     0.0010     3.5940 ha         1 K56       0.104000
     36 H4           7.0900     0.0040     1.5500 ha         1 K56       0.108000
     37 H5           6.0070     0.0050    -0.6690 ha         1 K56       0.106000
     38 H6           3.6520     0.8850    -1.7410 h1         1 K56       0.015700
     39 H7           3.6600    -0.8720    -1.7470 h1         1 K56       0.015700
     40 H8           0.1560     0.5030    -2.2880 h1         1 K56       0.035200
     41 H9           1.6700     0.5120    -3.2010 h1         1 K56       0.035200
     42 H10          1.7830    -1.9820    -2.9430 hc         1 K56       0.028700
     43 H11          0.8210    -1.0010    -4.9810 hc         1 K56       0.029450
     44 H12         -0.7620    -0.8840    -4.1910 hc         1 K56       0.029450
     45 H13          0.7760    -3.4530    -4.7190 h1         1 K56       0.018950
     46 H14         -0.6460    -2.8940    -5.6160 h1         1 K56       0.018950
     47 H15         -0.9930    -1.5820    -1.7680 hc         1 K56       0.029450
     48 H16          0.4320    -2.1780    -0.8980 hc         1 K56       0.029450
     49 H17          0.5560    -4.1170    -2.4160 h1         1 K56       0.018950
     50 H18         -1.0280    -4.0440    -1.6250 h1         1 K56       0.018950
     51 H19         -0.1560    -7.7000    -4.7730 h5         1 K56      -0.004900
     52 H20         -4.7620    -7.6320    -5.3370 ha         1 K56       0.142000
     53 H21         -6.5820    -7.5470    -6.2950 h1         1 K56       0.000700
     54 H22         -8.1320    -7.4640    -5.4460 h1         1 K56       0.000700
     55 H23         -6.6910    -8.0460    -4.6020 h1         1 K56       0.000700
     56 H24         -3.5320    -3.0860    -3.7660 ha         1 K56       0.149000
     57 H25         -6.5100    -1.5310    -3.6190 h1         1 K56       0.001033
     58 H26         -4.9690    -1.7650    -4.4560 h1         1 K56       0.001033
     59 H27         -5.1380    -2.2510    -2.7630 h1         1 K56       0.001033
@<TRIPOS>BOND
     1     1     2 2   
     2     2     3 1   
     3     2    11 1   
     4     3     4 1   
     5     3    33 1   
     6     4     5 ar  
     7     4     9 ar  
     8     5     6 ar  
     9     5    34 1   
    10     6     7 ar  
    11     6    35 1   
    12     7     8 ar  
    13     7    36 1   
    14     8     9 ar  
    15     8    37 1   
    16     9    10 1   
    17    10    11 1   
    18    10    38 1   
    19    10    39 1   
    20    11    12 1   
    21    12    13 1   
    22    12    40 1   
    23    12    41 1   
    24    13    14 1   
    25    13    16 1   
    26    13    42 1   
    27    14    15 1   
    28    14    43 1   
    29    14    44 1   
    30    15    18 1   
    31    15    45 1   
    32    15    46 1   
    33    16    17 1   
    34    16    47 1   
    35    16    48 1   
    36    17    18 1   
    37    17    49 1   
    38    17    50 1   
    39    18    19 1   
    40    19    20 ar  
    41    19    24 ar  
    42    20    21 ar  
    43    21    22 ar  
    44    21    51 1   
    45    22    23 ar  
    46    23    24 ar  
    47    23    25 ar  
    48    24    30 ar  
    49    25    26 ar  
    50    25    52 1   
    51    26    27 1   
    52    26    29 ar  
    53    27    28 1   
    54    28    53 1   
    55    28    54 1   
    56    28    55 1   
    57    29    30 ar  
    58    29    31 1   
    59    30    56 1   
    60    31    32 1   
    61    32    57 1   
    62    32    58 1   
    63    32    59 1   
@<TRIPOS>SUBSTRUCTURE
     1 K56         1 TEMP              0 ****  ****    0 ROOT
