@<TRIPOS>MOLECULE
molecule
   26    26     1     0     0
SMALL
bcc


@<TRIPOS>ATOM
      1 O1'          0.0000     0.0000     0.0000 o          1 K5B      -0.817300
      2 C1           1.2120     0.0000     0.0000 c          1 K5B       0.808600
      3 O1           1.8850     0.0000     1.1650 o          1 K5B      -0.817300
      4 C2           1.9590    -0.0050    -1.2900 c          1 K5B       0.470100
      5 O2           3.1660    -0.0050    -1.2900 o          1 K5B      -0.535100
      6 C3           1.2060    -0.0120    -2.5960 c3         1 K5B      -0.174400
      7 C4           2.2010    -0.0170    -3.7590 c3         1 K5B       0.144100
      8 O7           2.9120     1.2380    -3.8160 os         1 K5B      -0.359600
      9 C7           3.4190     1.3270    -5.1650 c3         1 K5B       0.134100
     10 C8           3.7380     2.7810    -5.5190 c3         1 K5B       0.148400
     11 O8           4.8760     3.2150    -4.7690 oh         1 K5B      -0.588800
     12 C6           2.2720     0.7970    -6.0530 c3         1 K5B       0.078100
     13 O6           2.7940     0.0370    -7.1450 oh         1 K5B      -0.605800
     14 C5           1.4510    -0.1100    -5.1070 c3         1 K5B       0.087100
     15 O5           0.1170     0.3840    -4.9720 oh         1 K5B      -0.583800
     16 H2           0.5830     0.8720    -2.6580 hc         1 K5B       0.078200
     17 H3           0.5830    -0.8970    -2.6500 hc         1 K5B       0.078200
     18 H4           2.8990    -0.8400    -3.6610 h1         1 K5B       0.064700
     19 H5           4.2980     0.7040    -5.2770 h1         1 K5B       0.071700
     20 H6           3.9530     2.8560    -6.5780 h1         1 K5B       0.021700
     21 H7           2.8870     3.4060    -5.2770 h1         1 K5B       0.021700
     22 H8           5.1110     4.0890    -5.0330 ho         1 K5B       0.390000
     23 H9           1.6630     1.6180    -6.4120 h1         1 K5B       0.050700
     24 H10          2.3280     0.2600    -7.9340 ho         1 K5B       0.394000
     25 H11          1.4500    -1.1310    -5.4690 h1         1 K5B       0.049700
     26 H12         -0.4600    -0.1130    -5.5260 ho         1 K5B       0.389000
@<TRIPOS>BOND
     1    11    10 1
     2    10     9 1
     3     9    12 1
     4     9     8 1
     5    12    13 1
     6    12    14 1
     7    15    14 1
     8     8     7 1
     9    14     7 1
    10     7     6 1
    11     6     4 1
    12     4     5 2
    13     4     2 1
    14     2     1 1
    15     2     3 1
    16     6    16 1
    17     6    17 1
    18     7    18 1
    19     9    19 1
    20    10    20 1
    21    10    21 1
    22    11    22 1
    23    12    23 1
    24    13    24 1
    25    14    25 1
    26    15    26 1
@<TRIPOS>SUBSTRUCTURE
     1 K5B         1 TEMP              0 ****  ****    0 ROOT
