@<TRIPOS>MOLECULE
molecule
   71    75     1     0     0
SMALL
bcc


@<TRIPOS>ATOM
      1 C01          0.0000     0.0000     0.0000 c3         1 K5C      -0.064300
      2 C02          1.5060     0.0000     0.0000 ca         1 K5C      -0.035800
      3 C03          2.1940     0.0000     1.1930 ca         1 K5C      -0.124500
      4 C04          3.5930     0.0000     1.1920 ca         1 K5C      -0.096800
      5 C05          4.3330    -0.0000     2.4630 ce         1 K5C      -0.064200
      6 C06          5.6820     0.0000     2.4590 cf         1 K5C      -0.053700
      7 C07          6.4020    -0.0010     3.6970 ch         1 K5C       0.182500
      8 C09          4.2880     0.0000    -0.0240 ca         1 K5C      -0.124500
      9 C10          3.5910     0.0000    -1.2110 ca         1 K5C      -0.035800
     10 C11          4.3370    -0.0000    -2.5210 c3         1 K5C      -0.064300
     11 C12          2.2010    -0.0060    -1.2050 ca         1 K5C       0.113100
     12 C14          1.2040    -1.2030    -2.9310 ca         1 K5C       0.752600
     13 C16          1.2570    -3.5070    -2.8730 ca         1 K5C       0.911900
     14 C18          2.3930    -4.9980    -0.9530 c3         1 K5C       0.270500
     15 C19          3.6340    -6.0400    -1.1760 c3         1 K5C      -0.135900
     16 C20          4.4050    -6.0670     0.0370 c3         1 K5C       0.112800
     17 C23          4.9700    -8.1490     2.6750 ca         1 K5C      -0.074300
     18 C24          4.2930    -9.0690     3.0000 ca         1 K5C      -0.062500
     19 C25          4.8140   -10.4400     3.1770 ca         1 K5C      -0.036500
     20 C26          6.1520   -10.3830     2.8960 ca         1 K5C      -0.236500
     21 C31          6.9180    -9.0160     2.4620 ca         1 K5C      -0.036500
     22 C32          6.4230    -7.8690     2.3260 ca         1 K5C      -0.062500
     23 C33          2.2570    -5.7190     1.6050 c3         1 K5C       0.112800
     24 C34          1.6090    -5.5770    -0.0140 c3         1 K5C      -0.135900
     25 C36          0.1920    -2.5150    -4.6840 ca         1 K5C       0.545100
     26 C37         -0.5130    -2.4180    -5.8940 cc         1 K5C      -0.254800
     27 C38         -0.7650    -1.1880    -6.3160 cd         1 K5C      -0.055400
     28 C40          0.5000    -1.2640    -4.1430 ca         1 K5C      -0.306700
     29 N08          6.9860    -0.0130     4.6710 n1         1 K5C      -0.350800
     30 N15          1.5610    -2.3330    -2.3360 nb         1 K5C      -0.820000
     31 N17          1.6900    -5.0160    -2.1510 nu         1 K5C      -0.909900
     32 N21          3.2770    -6.6900     1.2580 n3         1 K5C      -0.655600
     33 N28          7.2290   -12.3380     1.3270 nz         1 K5C      -0.788500
     34 N35          0.5940    -3.6140    -4.0040 nb         1 K5C      -0.747000
     35 O13          1.5180    -0.0070    -2.3780 os         1 K5C      -0.335400
     36 O29          8.5500   -11.6320     3.5790 o          1 K5C      -0.472300
     37 O30          6.8060   -12.9680     3.8130 o          1 K5C      -0.472300
     38 S27          7.2490   -11.8850     2.9880 sy         1 K5C       0.986200
     39 S39         -0.1200    -0.0010    -5.1960 ss         1 K5C      -0.054500
     40 H1          -0.3330    -0.0080     1.0310 hc         1 K5C       0.050867
     41 H2          -0.6580     0.7240    -0.4650 hc         1 K5C       0.050867
     42 H3          -0.3330    -1.0200    -0.1530 hc         1 K5C       0.050867
     43 H4           2.1640     0.2380     2.2500 ha         1 K5C       0.153000
     44 H5           3.9360     0.5980     3.2740 ha         1 K5C       0.141000
     45 H6           6.1440    -0.4510     1.5890 ha         1 K5C       0.145000
     46 H7           5.3600     0.1470    -0.0750 ha         1 K5C       0.153000
     47 H8           5.2640     0.5560    -2.4510 hc         1 K5C       0.050867
     48 H9           3.7990     0.3000    -3.4120 hc         1 K5C       0.050867
     49 H10          4.4850    -1.0280    -2.8310 hc         1 K5C       0.050867
     50 H11          2.9000    -4.0510    -0.8110 h1         1 K5C       0.101700
     51 H12          4.1820    -5.4660    -1.9130 hc         1 K5C       0.070950
     52 H13          3.0730    -6.9460    -1.3690 hc         1 K5C       0.070950
     53 H14          4.9390    -6.9940    -0.1320 h1         1 K5C       0.057200
     54 H15          5.0730    -5.2930     0.3950 h1         1 K5C       0.057200
     55 H16          4.7150    -5.9060     2.6770 h1         1 K5C       0.049200
     56 H17          3.4190    -6.6470     3.4780 h1         1 K5C       0.049200
     57 H18          3.3820    -9.0990     3.5860 ha         1 K5C       0.185000
     58 H19          4.2870   -11.3720     3.3430 ha         1 K5C       0.154000
     59 H20          7.9470    -9.1760     2.7590 ha         1 K5C       0.154000
     60 H21          6.7540    -6.9220     1.9170 ha         1 K5C       0.185000
     61 H22          2.6700    -4.7580     1.8870 h1         1 K5C       0.057200
     62 H23          1.4550    -6.1580     2.1850 h1         1 K5C       0.057200
     63 H24          0.9280    -6.4180     0.0440 hc         1 K5C       0.070950
     64 H25          1.0240    -4.7540     0.3780 hc         1 K5C       0.070950
     65 H26         -1.2010    -3.0900    -6.3920 ha         1 K5C       0.173000
     66 H27         -1.2920    -0.7460    -7.1530 h4         1 K5C       0.185000
     67 H28          1.1440    -5.7950    -2.4630 hn         1 K5C       0.448800
     68 H30          7.8200   -13.1370     1.2100 hn         1 K5C       0.482467
     69 H31          7.9050   -11.7260     0.9160 hn         1 K5C       0.482467
     70 C22          4.0140    -6.7260     2.5760 c3         1 K5C       0.142100
     71 H283         6.3890   -12.7310     0.9500 hn         1 K5C       0.482467
@<TRIPOS>BOND
     1    24    23 1
     2    24    14 1
     3    23    32 1
     4    31    14 1
     5    31    13 1
     6    34    13 ar
     7    34    25 ar
     8    32    70 1
     9    32    16 1
    10    14    15 1
    11    26    25 1
    12    26    27 2
    13    18    19 ar
    14    18    17 ar
    15    13    30 ar
    16    70    17 1
    17    25    28 ar
    18    15    16 1
    19    19    20 ar
    20    17    22 ar
    21    33    38 1
    22    27    39 1
    23    30    12 ar
    24    28    12 ar
    25    28    39 1
    26    20    38 1
    27    20    21 ar
    28    22    21 ar
    29    12    35 1
    30    38    36 2
    31    38    37 2
    32    35    11 1
    33    10     9 1
    34    11     9 ar
    35    11     2 ar
    36     9     8 ar
    37     1     2 1
    38     2     3 ar
    39     8     4 ar
    40     3     4 ar
    41     4     5 1
    42     5     6 2
    43     6     7 1
    44     7    29 3
    45     1    40 1
    46     1    41 1
    47     1    42 1
    48     3    43 1
    49     5    44 1
    50     6    45 1
    51     8    46 1
    52    10    47 1
    53    10    48 1
    54    10    49 1
    55    14    50 1
    56    15    51 1
    57    15    52 1
    58    16    53 1
    59    16    54 1
    60    70    55 1
    61    70    56 1
    62    18    57 1
    63    19    58 1
    64    21    59 1
    65    22    60 1
    66    23    61 1
    67    23    62 1
    68    24    63 1
    69    24    64 1
    70    26    65 1
    71    27    66 1
    72    31    67 1
    73    33    68 1
    74    33    69 1
    75    71    33 1
@<TRIPOS>SUBSTRUCTURE
     1 K5C         1 TEMP              0 ****  ****    0 ROOT
