@<TRIPOS>MOLECULE
K5E
   35    37     1     0     0
SMALL
bcc


@<TRIPOS>ATOM
      1 S          -0.3860    1.1240    1.2370 s         1 K5E     -0.577400
      2 C1          6.2820    2.4810   -0.7690 ca        1 K5E      0.120100
      3 N1          2.0560    0.5100    0.4920 n         1 K5E     -0.497900
      4 O1          7.5150    2.2010   -1.3140 oh        1 K5E     -0.498100
      5 C2          5.7880    3.7880   -0.6450 ca        1 K5E     -0.208000
      6 N2          1.6130    0.5800    2.8280 n         1 K5E     -0.436100
      7 O2          5.6000   -1.3300    1.3650 oh        1 K5E     -0.600800
      8 C3          4.5350    3.9820   -0.0700 ca        1 K5E     -0.091000
      9 C4          3.7810    2.8970    0.3750 ca        1 K5E     -0.153000
     10 C5          4.2740    1.5950    0.2400 ca        1 K5E     -0.083300
     11 C6          5.5300    1.3800   -0.3320 ca        1 K5E     -0.149000
     12 C7          3.4890    0.3800    0.6990 c3        1 K5E      0.192200
     13 C8          1.1610    0.7340    1.5180 c         1 K5E      0.568400
     14 C9          2.9170    0.1560    3.1200 c2        1 K5E      0.040400
     15 C10         3.8410    0.0490    2.1290 c2        1 K5E     -0.190400
     16 C11         5.2500   -0.3850    2.3780 c3        1 K5E      0.202300
     17 C12         5.4360   -1.0040    3.7620 c3        1 K5E     -0.115400
     18 C13         4.7130   -0.1970    4.8130 c3        1 K5E     -0.070400
     19 C14         3.2210   -0.1750    4.5530 c3        1 K5E     -0.044200
     20 HN1         1.7510    0.7660   -0.4230 hn        1 K5E      0.348500
     21 HO1         7.9080    3.0370   -1.6050 ho        1 K5E      0.420000
     22 HO2         6.4980   -1.6180    1.5620 ho        1 K5E      0.405000
     23 H3          4.1380    5.0030    0.0360 ha        1 K5E      0.137000
     24 H4          2.7980    3.0800    0.8350 ha        1 K5E      0.142000
     25 H6          5.9380    0.3610   -0.4300 ha        1 K5E      0.164000
     26 H7          3.8170   -0.5020    0.0560 h1        1 K5E      0.098700
     27 H12         5.0460   -2.0560    3.7480 hc        1 K5E      0.054700
     28 H12A        6.5300   -1.0500    3.9990 hc        1 K5E      0.054700
     29 H13         4.9020   -0.6380    5.8270 hc        1 K5E      0.052200
     30 H13A        5.1100    0.8520    4.8220 hc        1 K5E      0.052200
     31 H14         2.7800   -1.1840    4.7830 hc        1 K5E      0.062200
     32 H14A        2.7380    0.5700    5.2410 hc        1 K5E      0.062200
     33 H15         0.9280    0.6220    3.5520 hn        1 K5E      0.355500
     34 H16         5.9210    0.5190    2.2700 h1        1 K5E      0.050700
     35 H2          6.3820    4.6420   -0.9980 ha        1 K5E      0.135000
@<TRIPOS>BOND
     1    1   13 2   
     2    2    4 1   
     3    2    5 ar  
     4    2   11 ar  
     5    3   12 1   
     6    3   13 1   
     7    3   20 1   
     8    4   21 1   
     9    5    8 ar  
    10    5   35 1   
    11    6   13 1   
    12    6   14 1   
    13    6   33 1   
    14    7   16 1   
    15    7   22 1   
    16    8    9 ar  
    17    8   23 1   
    18    9   10 ar  
    19    9   24 1   
    20   10   11 ar  
    21   10   12 1   
    22   11   25 1   
    23   12   15 1   
    24   12   26 1   
    25   14   15 2   
    26   14   19 1   
    27   15   16 1   
    28   16   17 1   
    29   16   34 1   
    30   17   18 1   
    31   17   27 1   
    32   17   28 1   
    33   18   19 1   
    34   18   29 1   
    35   18   30 1   
    36   19   31 1   
    37   19   32 1   
@<TRIPOS>SUBSTRUCTURE
     1 K5E         1 TEMP              0 ****  ****    0 ROOT
