@<TRIPOS>MOLECULE
molecule
   35    37     1     0     0
SMALL
bcc


@<TRIPOS>ATOM
      1 S            0.0000     0.0000     0.0000 s          1 K5E      -0.619400
      2 C1           5.3220     2.7530    -1.5090 ca         1 K5E      -0.222900
      3 N1           2.6460     0.0000     0.0000 ns         1 K5E      -0.372900
      4 O1           6.4140     3.6190    -1.6320 oh         1 K5E      -0.002100
      5 C2           6.0990     3.4620    -0.6060 ca         1 K5E      -0.076000
      6 N2           1.5980    -0.0130     2.0960 ns         1 K5E      -0.410100
      7 O2           6.1690    -0.8830     2.2410 oh         1 K5E      -0.602800
      8 C3           6.1780     3.0490     0.7140 ca         1 K5E      -0.098000
      9 C4           5.4810     1.9280     1.1310 ca         1 K5E      -0.228000
     10 C5           4.7080     1.2190     0.2280 ca         1 K5E      -0.058300
     11 C6           4.6250     1.6320    -1.0920 ca         1 K5E      -0.250000
     12 C7           3.9480     0.0000     0.6830 c3         1 K5E       0.144200
     13 C8           1.5330    -0.0050     0.7620 cs         1 K5E       0.534400
     14 C9           2.7880    -0.0180     2.8250 c2         1 K5E       0.021400
     15 C10          3.9450    -0.0070     2.2030 c2         1 K5E      -0.196400
     16 C11          5.2740     0.0100     2.9060 c3         1 K5E       0.178300
     17 C12          5.1210    -0.4220     4.3630 c3         1 K5E      -0.120400
     18 C13          3.9780     0.3930     4.9830 c3         1 K5E      -0.080400
     19 C14          2.6710    -0.0460     4.3280 c3         1 K5E      -0.046200
     20 HN1          2.2790    -0.7920    -0.4890 hn         1 K5E       0.326500
     21 HO1          6.1350     4.4200    -2.0440 ho         1 K5E       0.347000
     22 HO2          7.0580    -0.6650     2.4680 ho         1 K5E       0.408000
     23 H3           6.7850     3.6030     1.4200 ha         1 K5E       0.122000
     24 H4           5.5430     1.6050     2.1630 ha         1 K5E       0.183000
     25 H6           5.1400     0.8410    -0.5610 ha         1 K5E       0.253000
     26 H7           4.4900    -0.8780     0.3530 h1         1 K5E       0.078700
     27 H12          4.8590    -1.4730     4.3890 hc         1 K5E       0.057200
     28 H12A         6.0680    -0.2790     4.8700 hc         1 K5E       0.057200
     29 H13          3.8310     0.0650     6.0050 hc         1 K5E       0.055700
     30 H13A         4.2560     1.4400     4.9820 hc         1 K5E       0.055700
     31 H14          2.0850     0.8260     4.5900 hc         1 K5E       0.078200
     32 H14A         2.3570    -1.0530     4.5750 hc         1 K5E       0.078200
     33 H15          0.7720    -0.1630     2.6400 hn         1 K5E       0.354500
     34 H16          5.6780     1.0150     2.8760 h1         1 K5E       0.080700
     35 H2           6.8590     4.1460    -0.9640 ha         1 K5E      -0.027000
@<TRIPOS>BOND
     1     1    13 2
     2     2     4 1
     3     2     5 ar
     4     2    11 ar
     5     3    12 1
     6     3    13 1
     7     3    20 1
     8     4    21 1
     9     5     8 ar
    10     5    35 1
    11     6    13 1
    12     6    14 1
    13     7    16 1
    14     7    22 1
    15     8     9 ar
    16     8    23 1
    17     9    10 ar
    18     9    24 1
    19    10    11 ar
    20    10    12 1
    21    11    25 1
    22    12    15 1
    23    12    26 1
    24    14    15 2
    25    14    19 1
    26    15    16 1
    27    16    17 1
    28    17    18 1
    29    17    27 1
    30    17    28 1
    31    18    19 1
    32    18    29 1
    33    18    30 1
    34    19    31 1
    35    19    32 1
    36     6    33 1
    37    16    34 1
@<TRIPOS>SUBSTRUCTURE
     1 K5E         1 TEMP              0 ****  ****    0 ROOT
