@<TRIPOS>MOLECULE
K5P
   58    61     1     0     0
SMALL
bcc


@<TRIPOS>ATOM
      1 C1           0.0000     0.0000     0.0000 ca         1 K5P      -0.077000
      2 C2           1.3810     0.0000     0.0000 ca         1 K5P      -0.116000
      3 C3           2.0740     0.0000     1.1970 ca         1 K5P      -0.095300
      4 C7           4.0900     1.2470     0.4710 c3         1 K5P       0.003900
      5 C8           4.0940    -0.0010     2.6350 c3         1 K5P       0.003900
      6 C9           4.0880    -1.2510     0.4720 c3         1 K5P       0.003900
      7 C10         -2.8150    -1.1630     0.7120 c3         1 K5P       0.092000
      8 C11         -3.2670    -0.9040    -0.7020 ca         1 K5P      -0.122300
      9 C12         -3.7410     0.3440    -1.0580 ca         1 K5P      -0.060000
     10 C13         -4.1540     0.5840    -2.3540 ca         1 K5P      -0.189000
     11 C14         -4.0930    -0.4300    -3.2990 ca         1 K5P       0.129100
     12 C15         -3.6160    -1.6820    -2.9390 ca         1 K5P      -0.189000
     13 C16         -3.1990    -1.9150    -1.6430 ca         1 K5P      -0.060000
     14 C19         -4.8570    -0.2090     1.7630 ca         1 K5P       0.020700
     15 C20         -6.2280    -0.2780     1.8780 ca         1 K5P      -0.092000
     16 C21         -6.9650     0.8770     2.0770 ca         1 K5P      -0.088000
     17 C22         -6.3330     2.1050     2.1610 ca         1 K5P      -0.153000
     18 C24         -4.2150     1.0300     1.8340 ca         1 K5P      -0.168600
     19 C26         -3.5810    -1.9570     2.9290 c          1 K5P       0.982600
     20 O2          -4.4860    -2.2820     3.8650 o          1 K5P      -0.879800
     21 C18         -4.0350    -1.4580     1.5820 c3         1 K5P      -0.121400
     22 O           -4.5000    -0.1970    -4.5740 os         1 K5P      -0.314900
     23 C17         -4.4070    -1.2870    -5.4940 c3         1 K5P       0.244700
     24 C23         -4.9600     2.1880     2.0410 ca         1 K5P      -0.047000
     25 C25         -2.7480     1.0890     1.6660 c          1 K5P       0.652100
     26 O1          -2.1400     2.1050     1.9390 o          1 K5P      -0.712500
     27 N           -2.0910     0.0060     1.2070 n          1 K5P       0.029000
     28 C           -0.6940     0.0010     1.2040 ca         1 K5P      -0.049400
     29 C5           0.0050    -0.0040     2.4040 ca         1 K5P      -0.077000
     30 C4           1.3860     0.0000     2.3970 ca         1 K5P      -0.116000
     31 C6           3.5800    -0.0010     1.1940 c3         1 K5P      -0.006700
     32 H1          -0.5420     0.0000    -0.9380 ha         1 K5P       0.123500
     33 H2           1.9220    -0.0000    -0.9390 ha         1 K5P       0.104500
     34 H3           3.6130     2.1260     0.8880 hc         1 K5P       0.004033
     35 H4           3.8540     1.1750    -0.5840 hc         1 K5P       0.004033
     36 H5           5.1630     1.3240     0.5970 hc         1 K5P       0.004033
     37 H6           3.7340     0.8840     3.1470 hc         1 K5P       0.004033
     38 H7           5.1770    -0.0010     2.6320 hc         1 K5P       0.004033
     39 H8           3.7340    -0.8850     3.1470 hc         1 K5P       0.004033
     40 H9           3.6100    -2.1290     0.8900 hc         1 K5P       0.004033
     41 H10          3.8520    -1.1800    -0.5830 hc         1 K5P       0.004033
     42 H11          5.1610    -1.3300     0.5980 hc         1 K5P       0.004033
     43 H12         -2.1540    -2.0210     0.7280 h1         1 K5P       0.067700
     44 H13         -3.7560     1.1450    -0.3280 ha         1 K5P       0.122500
     45 H14         -4.5760     1.5470    -2.6190 ha         1 K5P       0.111500
     46 H15         -3.6040    -2.4860    -3.6650 ha         1 K5P       0.111500
     47 H16         -2.8740    -2.9470    -1.5850 ha         1 K5P       0.122500
     48 H17         -6.7300    -1.2360     1.8130 ha         1 K5P       0.114000
     49 H18         -8.0420     0.8180     2.1720 ha         1 K5P       0.086000
     50 H19         -6.9180     3.0030     2.3170 ha         1 K5P       0.090000
     51 H21         -4.6410    -2.2160     1.1000 hc         1 K5P       0.043700
     52 H22         -4.7510    -0.9660    -6.4700 h1         1 K5P      -0.007967
     53 H23         -3.3770    -1.6150    -5.5640 h1         1 K5P      -0.007967
     54 H24         -5.0240    -2.1070    -5.1460 h1         1 K5P      -0.007967
     55 H25         -4.4650     3.1500     2.1070 ha         1 K5P       0.112000
     56 H26         -0.5330    -0.0040     3.3440 ha         1 K5P       0.123500
     57 H27          1.9310    -0.0020     3.3330 ha         1 K5P       0.104500
     58 O3          -2.4010    -2.0690     3.1650 o          1 K5P      -0.879800
@<TRIPOS>BOND
     1     1     2 ar  
     2     1    28 ar  
     3     1    32 1   
     4     2     3 ar  
     5     2    33 1   
     6     3    30 ar  
     7     3    31 1   
     8     4    31 1   
     9     4    34 1   
    10     4    35 1   
    11     4    36 1   
    12     5    31 1   
    13     5    37 1   
    14     5    38 1   
    15     5    39 1   
    16     6    31 1   
    17     6    40 1   
    18     6    41 1   
    19     6    42 1   
    20     7     8 1   
    21     7    21 1   
    22     7    27 1   
    23     7    43 1   
    24     8     9 ar  
    25     8    13 ar  
    26     9    10 ar  
    27     9    44 1   
    28    10    11 ar  
    29    10    45 1   
    30    11    12 ar  
    31    11    22 1   
    32    12    13 ar  
    33    12    46 1   
    34    13    47 1   
    35    14    15 ar  
    36    14    18 ar  
    37    14    21 1   
    38    15    16 ar  
    39    15    48 1   
    40    16    17 ar  
    41    16    49 1   
    42    17    24 ar  
    43    17    50 1   
    44    18    24 ar  
    45    18    25 1   
    46    19    20 1   
    47    19    21 1   
    48    19    58 1   
    49    21    51 1   
    50    22    23 1   
    51    23    52 1   
    52    23    53 1   
    53    23    54 1   
    54    24    55 1   
    55    25    26 2   
    56    25    27 1   
    57    27    28 1   
    58    28    29 ar  
    59    29    30 ar  
    60    29    56 1   
    61    30    57 1   
@<TRIPOS>SUBSTRUCTURE
     1 K5P         1 TEMP              0 ****  ****    0 ROOT
