@<TRIPOS>MOLECULE
molecule
   58    61     1     0     0
SMALL
bcc


@<TRIPOS>ATOM
      1 C1           0.0000     0.0000     0.0000 ca         1 K5P      -0.109000
      2 C2           1.3810     0.0000     0.0000 ca         1 K5P      -0.134000
      3 C3           2.0740     0.0000     1.1970 ca         1 K5P      -0.091300
      4 C7           4.0900     1.2470     0.4710 c3         1 K5P      -0.079767
      5 C8           4.0940    -0.0010     2.6350 c3         1 K5P      -0.079767
      6 C9           4.0880    -1.2510     0.4720 c3         1 K5P      -0.079767
      7 C10         -2.8150    -1.1630     0.7120 c3         1 K5P       0.186000
      8 C11         -3.2670    -0.9040    -0.7020 ca         1 K5P      -0.116300
      9 C12         -3.7410     0.3440    -1.0580 ca         1 K5P      -0.082000
     10 C13         -4.1540     0.5840    -2.3540 ca         1 K5P      -0.201000
     11 C14         -4.0930    -0.4300    -3.2990 ca         1 K5P       0.119100
     12 C15         -3.6160    -1.6820    -2.9390 ca         1 K5P      -0.201000
     13 C16         -3.1990    -1.9150    -1.6430 ca         1 K5P      -0.082000
     14 C19         -4.8570    -0.2090     1.7630 ca         1 K5P       0.018700
     15 C20         -6.2280    -0.2780     1.8780 ca         1 K5P      -0.117000
     16 C21         -6.9650     0.8770     2.0770 ca         1 K5P      -0.112000
     17 C22         -6.3330     2.1050     2.1610 ca         1 K5P      -0.172000
     18 C24         -4.2150     1.0300     1.8340 ca         1 K5P      -0.158600
     19 C26         -3.5810    -1.9570     2.9290 c          1 K5P       0.896600
     20 O2          -4.4860    -2.2820     3.8650 o          1 K5P      -0.827300
     21 C18         -4.0350    -1.4580     1.5820 c3         1 K5P      -0.149400
     22 O           -4.5000    -0.1970    -4.5740 os         1 K5P      -0.337900
     23 C17         -4.4070    -1.2870    -5.4940 c3         1 K5P       0.132700
     24 C23         -4.9600     2.1880     2.0410 ca         1 K5P      -0.078000
     25 C25         -2.7480     1.0890     1.6660 c          1 K5P       0.730100
     26 O1          -2.1400     2.1050     1.9390 o          1 K5P      -0.662500
     27 N           -2.0910     0.0060     1.2070 n          1 K5P      -0.367000
     28 C           -0.6940     0.0010     1.2040 ca         1 K5P       0.083600
     29 C5           0.0050    -0.0040     2.4040 ca         1 K5P      -0.109000
     30 C4           1.3860     0.0000     2.3970 ca         1 K5P      -0.134000
     31 C6           3.5800    -0.0010     1.1940 c3         1 K5P      -0.017700
     32 H1          -0.5420     0.0000    -0.9380 ha         1 K5P       0.150500
     33 H2           1.9220    -0.0000    -0.9390 ha         1 K5P       0.122500
     34 H3           3.6130     2.1260     0.8880 hc         1 K5P       0.032367
     35 H4           3.8540     1.1750    -0.5840 hc         1 K5P       0.032367
     36 H5           5.1630     1.3240     0.5970 hc         1 K5P       0.032367
     37 H6           3.7340     0.8840     3.1470 hc         1 K5P       0.032367
     38 H7           5.1770    -0.0010     2.6320 hc         1 K5P       0.032367
     39 H8           3.7340    -0.8850     3.1470 hc         1 K5P       0.032367
     40 H9           3.6100    -2.1290     0.8900 hc         1 K5P       0.032367
     41 H10          3.8520    -1.1800    -0.5830 hc         1 K5P       0.032367
     42 H11          5.1610    -1.3300     0.5980 hc         1 K5P       0.032367
     43 H12         -2.1540    -2.0210     0.7280 h1         1 K5P       0.094700
     44 H13         -3.7560     1.1450    -0.3280 ha         1 K5P       0.145500
     45 H14         -4.5760     1.5470    -2.6190 ha         1 K5P       0.129000
     46 H15         -3.6040    -2.4860    -3.6650 ha         1 K5P       0.129000
     47 H16         -2.8740    -2.9470    -1.5850 ha         1 K5P       0.145500
     48 H17         -6.7300    -1.2360     1.8130 ha         1 K5P       0.140000
     49 H18         -8.0420     0.8180     2.1720 ha         1 K5P       0.113000
     50 H19         -6.9180     3.0030     2.3170 ha         1 K5P       0.113000
     51 H21         -4.6410    -2.2160     1.1000 hc         1 K5P       0.068700
     52 H22         -4.7510    -0.9660    -6.4700 h1         1 K5P       0.034700
     53 H23         -3.3770    -1.6150    -5.5640 h1         1 K5P       0.034700
     54 H24         -5.0240    -2.1070    -5.1460 h1         1 K5P       0.034700
     55 H25         -4.4650     3.1500     2.1070 ha         1 K5P       0.138000
     56 H26         -0.5330    -0.0040     3.3440 ha         1 K5P       0.150500
     57 H27          1.9310    -0.0020     3.3330 ha         1 K5P       0.122500
     58 O3          -2.4010    -2.0690     3.1650 o          1 K5P      -0.827300
@<TRIPOS>BOND
     1    58    19 1
     2    20    19 1
     3    19    21 1
     4     4    31 1
     5     2     1 ar
     6     2     3 ar
     7     1    28 ar
     8    21     7 1
     9    21    14 1
    10    31     3 1
    11    31     6 1
    12    31     5 1
    13     3    30 ar
    14    28    27 1
    15    28    29 ar
    16     7    27 1
    17     7     8 1
    18    27    25 1
    19    14    15 ar
    20    14    18 ar
    21    25    26 2
    22    25    18 1
    23    15    16 ar
    24    18    24 ar
    25    30    29 ar
    26    16    17 ar
    27     9     8 ar
    28     9    10 ar
    29     8    13 ar
    30    24    17 ar
    31    10    11 ar
    32    13    12 ar
    33    11    12 ar
    34    11    22 1
    35    22    23 1
    36     1    32 1
    37     2    33 1
    38     4    34 1
    39     4    35 1
    40     4    36 1
    41     5    37 1
    42     5    38 1
    43     5    39 1
    44     6    40 1
    45     6    41 1
    46     6    42 1
    47     7    43 1
    48     9    44 1
    49    10    45 1
    50    12    46 1
    51    13    47 1
    52    15    48 1
    53    16    49 1
    54    17    50 1
    55    21    51 1
    56    23    52 1
    57    23    53 1
    58    23    54 1
    59    24    55 1
    60    29    56 1
    61    30    57 1
@<TRIPOS>SUBSTRUCTURE
     1 K5P         1 TEMP              0 ****  ****    0 ROOT
