@<TRIPOS>MOLECULE
molecule
   47    50     1     0     0
SMALL
bcc


@<TRIPOS>ATOM
      1 C1           0.0000     0.0000     0.0000 ca         1 K5Q      -0.128000
      2 C2           1.3840     0.0000     0.0000 ca         1 K5Q      -0.151000
      3 C3          -0.6920     0.0010     1.1920 ca         1 K5Q      -0.104000
      4 C4          -2.7670    -1.3160     2.3170 ca         1 K5Q      -0.126000
      5 C5           2.0780     0.0000     1.1960 ca         1 K5Q      -0.126000
      6 C6          -3.7600    -1.5350     1.3840 ca         1 K5Q      -0.173000
      7 C7           0.0030     0.0020     2.4050 ca         1 K5Q      -0.014800
      8 C8          -2.8520    -0.2290     3.1900 ca         1 K5Q      -0.121800
      9 C9          -3.9610     0.6460     3.1090 ca         1 K5Q      -0.034600
     10 C10          1.3960     0.0010     2.3970 ca         1 K5Q      -0.113300
     11 C11         -4.8530    -0.6820     1.3000 ca         1 K5Q       0.075100
     12 C12         -4.9580     0.4100     2.1560 ca         1 K5Q       0.067100
     13 C13         -0.4920     0.0040     3.8000 ce         1 K5Q      -0.204800
     14 C14          0.6690     0.0050     4.7060 ce         1 K5Q       0.466600
     15 C15         -1.7990     0.0050     4.1810 cf         1 K5Q       0.076800
     16 C16         -4.0650     1.7950     4.0200 c          1 K5Q       0.889200
     17 C17         -8.6510    -1.4310    -2.8350 c          1 K5Q       0.892600
     18 C18          1.8930     0.0020     3.8210 c3         1 K5Q      -0.100400
     19 C19         -7.1730     0.7810     1.3790 c3         1 K5Q       0.099400
     20 C20         -6.7070     0.1460     0.0610 c3         1 K5Q       0.098100
     21 C22         -7.9150    -0.3870    -0.7100 c3         1 K5Q      -0.057400
     22 N23          0.6440     0.0070     6.0020 n2         1 K5Q      -0.456200
     23 O24         -4.6910     1.6610     5.2060 o          1 K5Q      -0.828800
     24 O25         -9.7510    -1.3950    -2.3360 o          1 K5Q      -0.864800
     25 O26         -3.5870     2.8680     3.7040 o          1 K5Q      -0.828800
     26 O27         -8.4910    -1.9390    -4.0680 o          1 K5Q      -0.864800
     27 O28         -6.0170     1.2560     2.0790 os         1 K5Q      -0.294900
     28 O29         -5.8180    -0.9320     0.3720 os         1 K5Q      -0.319900
     29 O30          1.8570     0.0080     6.7320 oh         1 K5Q      -0.414500
     30 H1          -0.5400     0.0000    -0.9390 ha         1 K5Q       0.130000
     31 H2           1.9240    -0.0010    -0.9390 ha         1 K5Q       0.112000
     32 H3          -1.7760     0.0010     1.1880 ha         1 K5Q       0.179000
     33 H5           3.1620    -0.0000     1.1910 ha         1 K5Q       0.108000
     34 H4          -1.9210    -1.9890     2.3740 ha         1 K5Q       0.122000
     35 H6          -3.6860    -2.3810     0.7120 ha         1 K5Q       0.130000
     36 H15         -2.0590     0.1430     5.2240 ha         1 K5Q       0.170000
     37 H181         2.4810    -0.8880     4.0080 hc         1 K5Q       0.061200
     38 H182         2.4840     0.8910     4.0060 hc         1 K5Q       0.061200
     39 H211        -7.0030    -0.0990    -2.6350 hc         1 K5Q       0.036700
     40 H212        -6.7400    -1.7030    -1.9380 hc         1 K5Q       0.036700
     41 H191        -7.8370     1.6100     1.1680 h1         1 K5Q       0.059700
     42 H192        -7.6840     0.0390     1.9800 h1         1 K5Q       0.059700
     43 H20         -6.1850     0.8860    -0.5340 h1         1 K5Q       0.052700
     44 H221        -8.3720    -1.1950    -0.1520 hc         1 K5Q       0.056200
     45 H222        -8.6360     0.4090    -0.8480 hc         1 K5Q       0.056200
     46 H30          1.6680     0.0060     7.6560 ho         1 K5Q       0.417000
     47 C21         -7.4610    -0.9060    -2.0760 c3         1 K5Q      -0.180400
@<TRIPOS>BOND
     1     1     2 ar
     2     1     3 ar
     3     2     5 ar
     4     3     7 ar
     5     4     6 ar
     6     4     8 ar
     7     5    10 ar
     8     6    11 ar
     9     7    10 ar
    10     7    13 1
    11     8     9 ar
    12     8    15 1
    13     9    12 ar
    14     9    16 1
    15    10    18 1
    16    11    12 ar
    17    11    28 1
    18    12    27 1
    19    13    14 1
    20    13    15 2
    21    14    18 1
    22    14    22 2
    23    16    23 1
    24    16    25 1
    25    17    47 1
    26    17    24 1
    27    17    26 1
    28    19    20 1
    29    19    27 1
    30    20    21 1
    31    20    28 1
    32    47    21 1
    33    22    29 1
    34     1    30 1
    35     2    31 1
    36     3    32 1
    37     5    33 1
    38     4    34 1
    39     6    35 1
    40    15    36 1
    41    18    37 1
    42    18    38 1
    43    47    39 1
    44    47    40 1
    45    19    41 1
    46    19    42 1
    47    20    43 1
    48    21    44 1
    49    21    45 1
    50    29    46 1
@<TRIPOS>SUBSTRUCTURE
     1 K5Q         1 TEMP              0 ****  ****    0 ROOT
