@<TRIPOS>MOLECULE
K5Q
   47    50     1     0     0
SMALL
bcc


@<TRIPOS>ATOM
      1 C1           0.0000     0.0000     0.0000 ca         1 K5Q      -0.098000
      2 C2           1.3840     0.0000     0.0000 ca         1 K5Q      -0.133000
      3 C3          -0.6920     0.0010     1.1920 ca         1 K5Q      -0.104000
      4 C4          -2.7670    -1.3160     2.3170 ca         1 K5Q      -0.112000
      5 C5           2.0780     0.0000     1.1960 ca         1 K5Q      -0.096000
      6 C6          -3.7600    -1.5350     1.3840 ca         1 K5Q      -0.157000
      7 C7           0.0030     0.0020     2.4050 ca         1 K5Q       0.000200
      8 C8          -2.8520    -0.2290     3.1900 ca         1 K5Q      -0.120800
      9 C9          -3.9610     0.6460     3.1090 ca         1 K5Q      -0.036600
     10 C10          1.3960     0.0010     2.3970 ca         1 K5Q      -0.131300
     11 C11         -4.8530    -0.6820     1.3000 ca         1 K5Q       0.075100
     12 C12         -4.9580     0.4100     2.1560 ca         1 K5Q       0.079100
     13 C13         -0.4920     0.0040     3.8000 ce         1 K5Q      -0.226800
     14 C14          0.6690     0.0050     4.7060 ce         1 K5Q       0.454600
     15 C15         -1.7990     0.0050     4.1810 cf         1 K5Q       0.122800
     16 C16         -4.0650     1.7950     4.0200 c          1 K5Q       0.979200
     17 C17         -8.6510    -1.4310    -2.8350 c          1 K5Q       0.982600
     18 C18          1.8930     0.0020     3.8210 c3         1 K5Q      -0.011400
     19 C19         -7.1730     0.7810     1.3790 c3         1 K5Q       0.161400
     20 C20         -6.7070     0.1460     0.0610 c3         1 K5Q       0.125100
     21 C22         -7.9150    -0.3870    -0.7100 c3         1 K5Q      -0.015400
     22 N23          0.6440     0.0070     6.0020 n2         1 K5Q      -0.428200
     23 O24         -4.6910     1.6610     5.2060 o          1 K5Q      -0.882300
     24 O25         -9.7510    -1.3950    -2.3360 o          1 K5Q      -0.913800
     25 O26         -3.5870     2.8680     3.7040 o          1 K5Q      -0.882300
     26 O27         -8.4910    -1.9390    -4.0680 o          1 K5Q      -0.913800
     27 O28         -6.0170     1.2560     2.0790 os         1 K5Q      -0.269900
     28 O29         -5.8180    -0.9320     0.3720 os         1 K5Q      -0.292900
     29 O30          1.8570     0.0080     6.7320 oh         1 K5Q      -0.395500
     30 H1          -0.5400     0.0000    -0.9390 ha         1 K5Q       0.102000
     31 H2           1.9240    -0.0010    -0.9390 ha         1 K5Q       0.088000
     32 H3          -1.7760     0.0010     1.1880 ha         1 K5Q       0.163000
     33 H5           3.1620    -0.0000     1.1910 ha         1 K5Q       0.084000
     34 H4          -1.9210    -1.9890     2.3740 ha         1 K5Q       0.100000
     35 H6          -3.6860    -2.3810     0.7120 ha         1 K5Q       0.106000
     36 H15         -2.0590     0.1430     5.2240 ha         1 K5Q       0.133000
     37 H181         2.4810    -0.8880     4.0080 hc         1 K5Q       0.024200
     38 H182         2.4840     0.8910     4.0060 hc         1 K5Q       0.024200
     39 H211        -6.7400    -1.7030    -1.9380 hc         1 K5Q       0.012200
     40 H212        -7.0030    -0.0990    -2.6350 hc         1 K5Q       0.012200
     41 H191        -7.8370     1.6100     1.1680 h1         1 K5Q       0.020200
     42 H192        -7.6840     0.0390     1.9800 h1         1 K5Q       0.020200
     43 H20         -6.1850     0.8860    -0.5340 h1         1 K5Q       0.022700
     44 H221        -8.3720    -1.1950    -0.1520 hc         1 K5Q       0.028700
     45 H222        -8.6360     0.4090    -0.8480 hc         1 K5Q       0.028700
     46 H30          1.6680     0.0060     7.6560 ho         1 K5Q       0.406000
     47 C21         -7.4610    -0.9060    -2.0760 c3         1 K5Q      -0.134400
@<TRIPOS>BOND
     1     1     2 ar  
     2     1     3 ar  
     3     1    30 1   
     4     2     5 ar  
     5     2    31 1   
     6     3     7 ar  
     7     3    32 1   
     8     4     6 ar  
     9     4     8 ar  
    10     4    34 1   
    11     5    10 ar  
    12     5    33 1   
    13     6    11 ar  
    14     6    35 1   
    15     7    10 ar  
    16     7    13 1   
    17     8     9 ar  
    18     8    15 1   
    19     9    12 ar  
    20     9    16 1   
    21    10    18 1   
    22    11    12 ar  
    23    11    28 1   
    24    12    27 1   
    25    13    14 1   
    26    13    15 2   
    27    14    18 1   
    28    14    22 2   
    29    15    36 1   
    30    16    23 1   
    31    16    25 1   
    32    17    24 1   
    33    17    26 1   
    34    17    47 1   
    35    18    37 1   
    36    18    38 1   
    37    19    20 1   
    38    19    27 1   
    39    19    41 1   
    40    19    42 1   
    41    20    21 1   
    42    20    28 1   
    43    20    43 1   
    44    21    44 1   
    45    21    45 1   
    46    21    47 1   
    47    22    29 1   
    48    29    46 1   
    49    39    47 1   
    50    40    47 1   
@<TRIPOS>SUBSTRUCTURE
     1 K5Q         1 TEMP              0 ****  ****    0 ROOT
