@<TRIPOS>MOLECULE
molecule
   63    67     1     0     0
SMALL
bcc


@<TRIPOS>ATOM
      1 F            0.0000     0.0000     0.0000 f          1 K5S      -0.159900
      2 C28          1.3510     0.0000     0.0000 ca         1 K5S       0.097900
      3 C            2.0430     0.0000     1.2010 ca         1 K5S      -0.157000
      4 C27          2.0420    -0.0040    -1.1980 ca         1 K5S      -0.134000
      5 C26          3.4340    -0.0030    -1.1900 ca         1 K5S      -0.142600
      6 C2           4.1250     0.0180     0.0240 ca         1 K5S      -0.029300
      7 C1           3.4260     0.0090     1.2120 ca         1 K5S      -0.041000
      8 C25          4.2040    -0.0110    -2.4510 c          1 K5S       0.729100
      9 O4           3.6500     0.2130    -3.5100 o          1 K5S      -0.645500
     10 N            5.5250    -0.2710    -2.4180 n          1 K5S      -0.397000
     11 C15          6.2860    -0.1240    -3.5820 ca         1 K5S       0.072600
     12 C24          6.4540    -1.2000    -4.4420 ca         1 K5S      -0.109000
     13 C23          7.2060    -1.0530    -5.5930 ca         1 K5S       0.029400
     14 Cl           7.4170    -2.3980    -6.6700 cl         1 K5S      -0.123400
     15 C18          7.7900     0.1670    -5.8880 ca         1 K5S      -0.068300
     16 C19          8.6080     0.3250    -7.1420 c3         1 K5S      -0.018700
     17 C22          7.7340     0.0290    -8.3620 c3         1 K5S      -0.089100
     18 C21          9.1370     1.7580    -7.2290 c3         1 K5S      -0.089100
     19 C20          9.7860    -0.6510    -7.1100 c3         1 K5S      -0.089100
     20 C17          7.6230     1.2400    -5.0320 ca         1 K5S      -0.125000
     21 C16          6.8700     1.1000    -3.8830 ca         1 K5S      -0.108000
     22 C6           6.1770    -0.7010    -1.1820 c3         1 K5S       0.166000
     23 C3           5.6300     0.0680     0.0190 c3         1 K5S      -0.018400
     24 C4           6.0910     1.5250    -0.0590 c3         1 K5S      -0.181400
     25 C5           5.6570     2.2570     1.1840 c          1 K5S       0.895600
     26 O1           5.0430     1.6720     2.0460 o          1 K5S      -0.848300
     27 O            5.9530     3.5560     1.3370 o          1 K5S      -0.848300
     28 C7           5.9320    -2.1740    -0.9810 ca         1 K5S      -0.097300
     29 C14          6.9460    -2.9830    -0.5040 ca         1 K5S      -0.114000
     30 C13          6.7230    -4.3390    -0.3170 ca         1 K5S       0.055100
     31 C10          5.4770    -4.8820    -0.6090 ca         1 K5S       0.053100
     32 C9           4.4640    -4.0640    -1.0890 ca         1 K5S      -0.123000
     33 C8           4.6910    -2.7130    -1.2670 ca         1 K5S      -0.112000
     34 O3           7.7330    -5.1240     0.1500 os         1 K5S      -0.324900
     35 C12          7.3620    -6.4040     0.6760 c3         1 K5S       0.099400
     36 C11          6.3800    -7.0600    -0.3030 c3         1 K5S       0.101400
     37 O2           5.2360    -6.2090    -0.4290 os         1 K5S      -0.326900
     38 H1           1.4970    -0.0070     2.1370 ha         1 K5S       0.136000
     39 H2           1.5050     0.1080    -2.1330 ha         1 K5S       0.153000
     40 H3           3.9610     0.0090     2.1540 ha         1 K5S       0.193000
     41 H4           5.9500    -2.1380    -4.2420 ha         1 K5S       0.154000
     42 H5           7.5310    -1.0340    -8.4120 hc         1 K5S       0.038144
     43 H6           8.2520     0.3400    -9.2620 hc         1 K5S       0.038144
     44 H7           6.8000     0.5720    -8.2780 hc         1 K5S       0.038144
     45 H8           9.7260     1.8720    -8.1310 hc         1 K5S       0.038144
     46 H9           9.7560     1.9680    -6.3650 hc         1 K5S       0.038144
     47 H10          8.3040     2.4500    -7.2520 hc         1 K5S       0.038144
     48 H11         10.4790    -0.4070    -7.9060 hc         1 K5S       0.038144
     49 H12         10.2920    -0.5750    -6.1550 hc         1 K5S       0.038144
     50 H13          9.4220    -1.6620    -7.2450 hc         1 K5S       0.038144
     51 H14          8.0800     2.1940    -5.2660 ha         1 K5S       0.143000
     52 H15          6.7400     1.9420    -3.2140 ha         1 K5S       0.159000
     53 H16          7.2420    -0.5210    -1.2620 h1         1 K5S       0.072700
     54 H17          6.0040    -0.3820     0.9300 hc         1 K5S       0.087700
     55 H18          7.1710     1.5590    -0.1400 hc         1 K5S       0.042200
     56 H19          5.6490     1.9980    -0.9280 hc         1 K5S       0.042200
     57 H21          7.9150    -2.5570    -0.2730 ha         1 K5S       0.146000
     58 H22          3.4950    -4.4860    -1.3240 ha         1 K5S       0.142000
     59 H23          3.9020    -2.0790    -1.6510 ha         1 K5S       0.158000
     60 H24          6.8850    -6.2760     1.6400 h1         1 K5S       0.062200
     61 H25          8.2440    -7.0240     0.7780 h1         1 K5S       0.062200
     62 H26          6.8570    -7.1550    -1.2710 h1         1 K5S       0.062700
     63 H27          6.0670    -8.0160     0.0980 h1         1 K5S       0.062700
@<TRIPOS>BOND
     1    26    25 1
     2    25    27 1
     3    25    24 1
     4    19    16 1
     5    24    23 1
     6    20    21 ar
     7    20    15 ar
     8    21    11 ar
     9    17    16 1
    10    16    15 1
    11    16    18 1
    12    15    13 ar
    13    23    22 1
    14    23     6 1
    15    11    10 1
    16    11    12 ar
    17    22    10 1
    18    22    28 1
    19    10     8 1
    20     6     7 ar
    21     6     5 ar
    22    13    12 ar
    23    13    14 1
    24     8     9 2
    25     8     5 1
    26     7     3 ar
    27     5     4 ar
    28     3     2 ar
    29     4     2 ar
    30    28    29 ar
    31    28    33 ar
    32    29    30 ar
    33     2     1 1
    34    33    32 ar
    35    30    34 1
    36    30    31 ar
    37    34    35 1
    38    32    31 ar
    39    31    37 1
    40    35    36 1
    41    37    36 1
    42     3    38 1
    43     4    39 1
    44     7    40 1
    45    12    41 1
    46    17    42 1
    47    17    43 1
    48    17    44 1
    49    18    45 1
    50    18    46 1
    51    18    47 1
    52    19    48 1
    53    19    49 1
    54    19    50 1
    55    20    51 1
    56    21    52 1
    57    22    53 1
    58    23    54 1
    59    24    55 1
    60    24    56 1
    61    29    57 1
    62    32    58 1
    63    33    59 1
    64    35    60 1
    65    35    61 1
    66    36    62 1
    67    36    63 1
@<TRIPOS>SUBSTRUCTURE
     1 K5S         1 TEMP              0 ****  ****    0 ROOT
