@<TRIPOS>MOLECULE
K5S
   63    67     1     0     0
SMALL
bcc


@<TRIPOS>ATOM
      1 F            0.0000     0.0000     0.0000 f          1 K5S      -0.143900
      2 C28          1.3510     0.0000     0.0000 ca         1 K5S       0.061900
      3 C            2.0430     0.0000     1.2010 ca         1 K5S      -0.121000
      4 C27          2.0420    -0.0040    -1.1980 ca         1 K5S      -0.097000
      5 C26          3.4340    -0.0030    -1.1900 ca         1 K5S      -0.153600
      6 C2           4.1250     0.0180     0.0240 ca         1 K5S      -0.028300
      7 C1           3.4260     0.0090     1.2120 ca         1 K5S      -0.027000
      8 C25          4.2040    -0.0110    -2.4510 c          1 K5S       0.657100
      9 O4           3.6500     0.2130    -3.5100 o          1 K5S      -0.693500
     10 N            5.5250    -0.2710    -2.4180 n          1 K5S      -0.023000
     11 C15          6.2860    -0.1240    -3.5820 ca         1 K5S      -0.052400
     12 C24          6.4540    -1.2000    -4.4420 ca         1 K5S      -0.083000
     13 C23          7.2060    -1.0530    -5.5930 ca         1 K5S      -0.029600
     14 Cl           7.4170    -2.3980    -6.6700 cl         1 K5S      -0.034400
     15 C18          7.7900     0.1670    -5.8880 ca         1 K5S      -0.072300
     16 C19          8.6080     0.3250    -7.1420 c3         1 K5S      -0.004700
     17 C22          7.7340     0.0290    -8.3620 c3         1 K5S      -0.015433
     18 C21          9.1370     1.7580    -7.2290 c3         1 K5S      -0.015433
     19 C20          9.7860    -0.6510    -7.1100 c3         1 K5S      -0.015433
     20 C17          7.6230     1.2400    -5.0320 ca         1 K5S      -0.106000
     21 C16          6.8700     1.1000    -3.8830 ca         1 K5S      -0.074000
     22 C6           6.1770    -0.7010    -1.1820 c3         1 K5S       0.078000
     23 C3           5.6300     0.0680     0.0190 c3         1 K5S       0.011600
     24 C4           6.0910     1.5250    -0.0590 c3         1 K5S      -0.137400
     25 C5           5.6570     2.2570     1.1840 c          1 K5S       0.985600
     26 O1           5.0430     1.6720     2.0460 o          1 K5S      -0.896300
     27 O            5.9530     3.5560     1.3370 o          1 K5S      -0.896300
     28 C7           5.9320    -2.1740    -0.9810 ca         1 K5S      -0.103300
     29 C14          6.9460    -2.9830    -0.5040 ca         1 K5S      -0.090000
     30 C13          6.7230    -4.3390    -0.3170 ca         1 K5S       0.061100
     31 C10          5.4770    -4.8820    -0.6090 ca         1 K5S       0.058100
     32 C9           4.4640    -4.0640    -1.0890 ca         1 K5S      -0.099000
     33 C8           4.6910    -2.7130    -1.2670 ca         1 K5S      -0.110000
     34 O3           7.7330    -5.1240     0.1500 os         1 K5S      -0.300900
     35 C12          7.3620    -6.4040     0.6760 c3         1 K5S       0.167400
     36 C11          6.3800    -7.0600    -0.3030 c3         1 K5S       0.169400
     37 O2           5.2360    -6.2090    -0.4290 os         1 K5S      -0.302900
     38 H1           1.4970    -0.0070     2.1370 ha         1 K5S       0.109000
     39 H2           1.5050     0.1080    -2.1330 ha         1 K5S       0.129000
     40 H3           3.9610     0.0090     2.1540 ha         1 K5S       0.170000
     41 H4           5.9500    -2.1380    -4.2420 ha         1 K5S       0.124000
     42 H5           7.5310    -1.0340    -8.4120 hc         1 K5S       0.011367
     43 H6           8.2520     0.3400    -9.2620 hc         1 K5S       0.011367
     44 H7           6.8000     0.5720    -8.2780 hc         1 K5S       0.011367
     45 H8           9.7260     1.8720    -8.1310 hc         1 K5S       0.011367
     46 H9           9.7560     1.9680    -6.3650 hc         1 K5S       0.011367
     47 H10          8.3040     2.4500    -7.2520 hc         1 K5S       0.011367
     48 H11         10.4790    -0.4070    -7.9060 hc         1 K5S       0.011367
     49 H12         10.2920    -0.5750    -6.1550 hc         1 K5S       0.011367
     50 H13          9.4220    -1.6620    -7.2450 hc         1 K5S       0.011367
     51 H14          8.0800     2.1940    -5.2660 ha         1 K5S       0.122000
     52 H15          6.7400     1.9420    -3.2140 ha         1 K5S       0.128000
     53 H16          7.2420    -0.5210    -1.2620 h1         1 K5S       0.044700
     54 H17          6.0040    -0.3820     0.9300 hc         1 K5S       0.060700
     55 H18          7.1710     1.5590    -0.1400 hc         1 K5S       0.017200
     56 H19          5.6490     1.9980    -0.9280 hc         1 K5S       0.017200
     57 H21          7.9150    -2.5570    -0.2730 ha         1 K5S       0.119000
     58 H22          3.4950    -4.4860    -1.3240 ha         1 K5S       0.113000
     59 H23          3.9020    -2.0790    -1.6510 ha         1 K5S       0.141000
     60 H24          6.8850    -6.2760     1.6400 h1         1 K5S       0.020200
     61 H25          8.2440    -7.0240     0.7780 h1         1 K5S       0.020200
     62 H26          6.8570    -7.1550    -1.2710 h1         1 K5S       0.020200
     63 H27          6.0670    -8.0160     0.0980 h1         1 K5S       0.020200
@<TRIPOS>BOND
     1     1     2 1   
     2     2     3 ar  
     3     2     4 ar  
     4     3     7 ar  
     5     3    38 1   
     6     4     5 ar  
     7     4    39 1   
     8     5     6 ar  
     9     5     8 1   
    10     6     7 ar  
    11     6    23 1   
    12     7    40 1   
    13     8     9 2   
    14     8    10 1   
    15    10    11 1   
    16    10    22 1   
    17    11    12 ar  
    18    11    21 ar  
    19    12    13 ar  
    20    12    41 1   
    21    13    14 1   
    22    13    15 ar  
    23    15    16 1   
    24    15    20 ar  
    25    16    17 1   
    26    16    18 1   
    27    16    19 1   
    28    17    42 1   
    29    17    43 1   
    30    17    44 1   
    31    18    45 1   
    32    18    46 1   
    33    18    47 1   
    34    19    48 1   
    35    19    49 1   
    36    19    50 1   
    37    20    21 ar  
    38    20    51 1   
    39    21    52 1   
    40    22    23 1   
    41    22    28 1   
    42    22    53 1   
    43    23    24 1   
    44    23    54 1   
    45    24    25 1   
    46    24    55 1   
    47    24    56 1   
    48    25    26 1   
    49    25    27 1   
    50    28    29 ar  
    51    28    33 ar  
    52    29    30 ar  
    53    29    57 1   
    54    30    31 ar  
    55    30    34 1   
    56    31    32 ar  
    57    31    37 1   
    58    32    33 ar  
    59    32    58 1   
    60    33    59 1   
    61    34    35 1   
    62    35    36 1   
    63    35    60 1   
    64    35    61 1   
    65    36    37 1   
    66    36    62 1   
    67    36    63 1   
@<TRIPOS>SUBSTRUCTURE
     1 K5S         1 TEMP              0 ****  ****    0 ROOT
