@<TRIPOS>MOLECULE
molecule
   15    15     1     0     0
SMALL
bcc


@<TRIPOS>ATOM
      1 C2           0.0000     0.0000     0.0000 ca         1 K5V       0.151100
      2 C3           1.3870     0.0000     0.0000 ca         1 K5V      -0.247000
      3 C4           2.0780     0.0000     1.2040 ca         1 K5V       0.217600
      4 C5           1.3780    -0.0000     2.4050 ca         1 K5V      -0.218000
      5 C6          -0.0030    -0.0000     2.4000 ca         1 K5V      -0.070000
      6 C1          -0.6940     0.0060     1.2020 ca         1 K5V      -0.203000
      7 N4           3.4740    -0.0010     1.2080 nv         1 K5V      -0.923200
      8 O2          -0.6790     0.0000    -1.1770 oh         1 K5V      -0.522100
      9 H1           1.9290    -0.0020    -0.9380 ha         1 K5V       0.136000
     10 H2           1.9160    -0.0020     3.3450 ha         1 K5V       0.129000
     11 H3          -0.5470     0.0020     3.3370 ha         1 K5V       0.131000
     12 H4          -1.7770     0.0060     1.2020 ha         1 K5V       0.139000
     13 H5           3.9780     0.1920     0.3650 hn         1 K5V       0.429800
     14 H6           3.9720    -0.2060     2.0520 hn         1 K5V       0.429800
     15 H7          -0.6330    -0.8570    -1.5670 ho         1 K5V       0.419000
@<TRIPOS>BOND
     1     5     4 ar
     2     5     6 ar
     3     4     3 ar
     4     6     1 ar
     5     3     7 1
     6     3     2 ar
     7     1     2 ar
     8     1     8 1
     9     2     9 1
    10     4    10 1
    11     5    11 1
    12     6    12 1
    13     7    13 1
    14     7    14 1
    15     8    15 1
@<TRIPOS>SUBSTRUCTURE
     1 K5V         1 TEMP              0 ****  ****    0 ROOT
