@<TRIPOS>MOLECULE
molecule
   67    68     1     0     0
SMALL
bcc


@<TRIPOS>ATOM
      1 CAG          0.0000     0.0000     0.0000 ca         1 K5Y      -0.125000
      2 CAE          1.3820     0.0000     0.0000 ca         1 K5Y      -0.126000
      3 CAD          2.0730     0.0000     1.1980 ca         1 K5Y      -0.132000
      4 CAF          1.3820     0.0010     2.3940 ca         1 K5Y      -0.126000
      5 CAH          0.0000     0.0010     2.3940 ca         1 K5Y      -0.125000
      6 CAZ         -0.6910     0.0000     1.1980 ca         1 K5Y      -0.082300
      7 CAV         -2.1980    -0.0010     1.1980 c3         1 K5Y      -0.034100
      8 CAQ         -2.7080    -1.4440     1.1980 c3         1 K5Y      -0.077400
      9 CAP         -4.2380    -1.4430     1.1970 c3         1 K5Y      -0.082400
     10 CAU         -4.7470    -2.8870     1.1980 c3         1 K5Y       0.139400
     11 OAY         -6.1760    -2.8870     1.1990 os         1 K5Y      -0.433600
     12 CAT         -6.7570    -4.1930     1.1980 c3         1 K5Y       0.139400
     13 CAO         -8.2820    -4.0730     1.1990 c3         1 K5Y      -0.081400
     14 CAM         -8.9050    -5.4700     1.1980 c3         1 K5Y      -0.080400
     15 CAL        -10.4290    -5.3500     1.1990 c3         1 K5Y      -0.080400
     16 CAN        -11.0510    -6.7490     1.1990 c3         1 K5Y      -0.082400
     17 CAS        -12.5770    -6.6280     1.1990 c3         1 K5Y       0.157800
     18 NAX        -13.1740    -7.9700     1.1990 n7         1 K5Y      -0.811200
     19 CAW        -14.6410    -7.8930     1.2000 c3         1 K5Y       0.158800
     20 CBD        -15.2250    -9.3070     1.1990 c3         1 K5Y       0.200400
     21 OAC        -14.7850   -10.0050     0.0330 oh         1 K5Y      -0.587800
     22 CBB        -16.7300    -9.2300     1.2000 ca         1 K5Y      -0.144300
     23 CAK        -17.4240    -9.2970     2.3940 ca         1 K5Y      -0.075000
     24 CAJ        -17.4130    -9.0840     0.0070 ca         1 K5Y      -0.073000
     25 CAI        -18.7930    -9.0110     0.0040 ca         1 K5Y      -0.196000
     26 CBA        -19.4920    -9.0840     1.2000 ca         1 K5Y       0.122100
     27 OAB        -20.8500    -9.0140     1.2000 oh         1 K5Y      -0.516100
     28 CBC        -18.8040    -9.2260     2.3970 ca         1 K5Y      -0.110300
     29 CAR        -19.5610    -9.3060     3.6970 c3         1 K5Y       0.196700
     30 OAA        -18.6360    -9.4480     4.7780 oh         1 K5Y      -0.618800
     31 H1          -0.5420    -0.0000    -0.9380 ha         1 K5Y       0.130000
     32 H2           1.9240    -0.0000    -0.9380 ha         1 K5Y       0.128500
     33 H3           3.1570     0.0000     1.1980 ha         1 K5Y       0.128000
     34 H4           1.9240     0.0010     3.3330 ha         1 K5Y       0.128500
     35 H5          -0.5410     0.0010     3.3330 ha         1 K5Y       0.130000
     36 H6          -2.5590     0.5100     2.0820 hc         1 K5Y       0.049700
     37 H7          -2.5590     0.5090     0.3130 hc         1 K5Y       0.049700
     38 H8          -2.3470    -1.9540     2.0830 hc         1 K5Y       0.045700
     39 H9          -2.3460    -1.9550     0.3140 hc         1 K5Y       0.045700
     40 H10         -4.5990    -0.9320     2.0810 hc         1 K5Y       0.053200
     41 H11         -4.5980    -0.9330     0.3120 hc         1 K5Y       0.053200
     42 H12         -4.3860    -3.3970     2.0830 h1         1 K5Y       0.022700
     43 H13         -4.3860    -3.3980     0.3140 h1         1 K5Y       0.022700
     44 H14         -6.4380    -4.7300     0.3130 h1         1 K5Y       0.022200
     45 H15         -6.4370    -4.7310     2.0820 h1         1 K5Y       0.022200
     46 H16         -8.6020    -3.5350     0.3150 hc         1 K5Y       0.053200
     47 H17         -8.6020    -3.5350     2.0840 hc         1 K5Y       0.053200
     48 H18         -8.5850    -6.0070     0.3140 hc         1 K5Y       0.042200
     49 H19         -8.5840    -6.0080     2.0820 hc         1 K5Y       0.042200
     50 H20        -10.7490    -4.8130     2.0840 hc         1 K5Y       0.042700
     51 H21        -10.7500    -4.8120     0.3150 hc         1 K5Y       0.042700
     52 H22        -10.7320    -7.2860     0.3140 hc         1 K5Y       0.048200
     53 H23        -10.7310    -7.2860     2.0830 hc         1 K5Y       0.048200
     54 H24        -12.8970    -6.0900     0.3150 h1         1 K5Y       0.031700
     55 H25        -12.8960    -6.0900     2.0840 h1         1 K5Y       0.031700
     56 H26        -12.8660    -8.4730     2.0080 hn         1 K5Y       0.345800
     57 H28        -14.9750    -7.3640     0.3150 h1         1 K5Y       0.044700
     58 H29        -14.9740    -7.3640     2.0840 h1         1 K5Y       0.044700
     59 H30        -14.8910    -9.8360     2.0840 h1         1 K5Y       0.034700
     60 H31        -14.5570   -10.8900     0.2640 ho         1 K5Y       0.403000
     61 H32        -16.8860    -9.4080     3.3270 ha         1 K5Y       0.154000
     62 H33        -16.8660    -9.0270    -0.9260 ha         1 K5Y       0.151000
     63 H34        -19.3280    -8.8960    -0.9310 ha         1 K5Y       0.136000
     64 H35        -21.1270    -8.2830     0.6720 ho         1 K5Y       0.422000
     65 H36        -20.1400    -8.4010     3.8340 h1         1 K5Y       0.037700
     66 H37        -20.2250   -10.1610     3.6750 h1         1 K5Y       0.037700
     67 H38        -19.1110    -9.5200     5.5900 ho         1 K5Y       0.406000
@<TRIPOS>BOND
     1    27    26 1
     2    26    25 ar
     3    26    28 ar
     4    25    24 ar
     5    29    30 1
     6    29    28 1
     7    28    23 ar
     8    24    22 ar
     9    23    22 ar
    10    22    20 1
    11    21    20 1
    12    20    19 1
    13    19    18 1
    14    18    17 1
    15    17    16 1
    16    16    15 1
    17     7     6 1
    18     7     8 1
    19     1     6 ar
    20     1     2 ar
    21    15    14 1
    22     6     5 ar
    23     2     3 ar
    24    14    13 1
    25     8     9 1
    26     5     4 ar
    27     3     4 ar
    28     9    10 1
    29    11    10 1
    30    11    12 1
    31    13    12 1
    32     1    31 1
    33     2    32 1
    34     3    33 1
    35     4    34 1
    36     5    35 1
    37     7    36 1
    38     7    37 1
    39     8    38 1
    40     8    39 1
    41     9    40 1
    42     9    41 1
    43    10    42 1
    44    10    43 1
    45    12    44 1
    46    12    45 1
    47    13    46 1
    48    13    47 1
    49    14    48 1
    50    14    49 1
    51    15    50 1
    52    15    51 1
    53    16    52 1
    54    16    53 1
    55    17    54 1
    56    17    55 1
    57    18    56 1
    58    19    57 1
    59    19    58 1
    60    20    59 1
    61    21    60 1
    62    23    61 1
    63    24    62 1
    64    25    63 1
    65    27    64 1
    66    29    65 1
    67    29    66 1
    68    30    67 1
@<TRIPOS>SUBSTRUCTURE
     1 K5Y         1 TEMP              0 ****  ****    0 ROOT
