@<TRIPOS>MOLECULE
K5Y
   67    68     1     0     0
SMALL
bcc


@<TRIPOS>ATOM
      1 CAG          0.0000     0.0000     0.0000 ca         1 K5Y      -0.098000
      2 CAE          1.3820     0.0000     0.0000 ca         1 K5Y      -0.099000
      3 CAD          2.0730     0.0000     1.1980 ca         1 K5Y      -0.105000
      4 CAF          1.3820     0.0010     2.3940 ca         1 K5Y      -0.099000
      5 CAH          0.0000     0.0010     2.3940 ca         1 K5Y      -0.098000
      6 CAZ         -0.6910     0.0000     1.1980 ca         1 K5Y      -0.090300
      7 CAV         -2.1980    -0.0010     1.1980 c3         1 K5Y       0.030900
      8 CAQ         -2.7080    -1.4440     1.1980 c3         1 K5Y      -0.022400
      9 CAP         -4.2380    -1.4430     1.1970 c3         1 K5Y      -0.036400
     10 CAU         -4.7470    -2.8870     1.1980 c3         1 K5Y       0.213400
     11 OAY         -6.1760    -2.8870     1.1990 os         1 K5Y      -0.418600
     12 CAT         -6.7570    -4.1930     1.1980 c3         1 K5Y       0.213400
     13 CAO         -8.2820    -4.0730     1.1990 c3         1 K5Y      -0.036400
     14 CAM         -8.9050    -5.4700     1.1980 c3         1 K5Y      -0.024400
     15 CAL        -10.4290    -5.3500     1.1990 c3         1 K5Y      -0.026400
     16 CAN        -11.0510    -6.7490     1.1990 c3         1 K5Y      -0.030400
     17 CAS        -12.5770    -6.6280     1.1990 c3         1 K5Y       0.142800
     18 NAX        -13.1740    -7.9700     1.1990 n7         1 K5Y      -0.574200
     19 CAW        -14.6410    -7.8930     1.2000 c3         1 K5Y       0.132800
     20 CBD        -15.2250    -9.3070     1.1990 c3         1 K5Y       0.256400
     21 OAC        -14.7850   -10.0050     0.0330 oh         1 K5Y      -0.571800
     22 CBB        -16.7300    -9.2300     1.2000 ca         1 K5Y      -0.162300
     23 CAK        -17.4240    -9.2970     2.3940 ca         1 K5Y      -0.045000
     24 CAJ        -17.4130    -9.0840     0.0070 ca         1 K5Y      -0.040000
     25 CAI        -18.7930    -9.0110     0.0040 ca         1 K5Y      -0.181000
     26 CBA        -19.4920    -9.0840     1.2000 ca         1 K5Y       0.141100
     27 OAB        -20.8500    -9.0140     1.2000 oh         1 K5Y      -0.494100
     28 CBC        -18.8040    -9.2260     2.3970 ca         1 K5Y      -0.138300
     29 CAR        -19.5610    -9.3060     3.6970 c3         1 K5Y       0.295700
     30 OAA        -18.6360    -9.4480     4.7780 oh         1 K5Y      -0.600800
     31 H1          -0.5420    -0.0000    -0.9380 ha         1 K5Y       0.105000
     32 H2           1.9240    -0.0000    -0.9380 ha         1 K5Y       0.102000
     33 H3           3.1570     0.0000     1.1980 ha         1 K5Y       0.102000
     34 H4           1.9240     0.0010     3.3330 ha         1 K5Y       0.102000
     35 H5          -0.5410     0.0010     3.3330 ha         1 K5Y       0.105000
     36 H6          -2.5590     0.5100     2.0820 hc         1 K5Y       0.019700
     37 H7          -2.5590     0.5090     0.3130 hc         1 K5Y       0.019700
     38 H8          -2.3470    -1.9540     2.0830 hc         1 K5Y       0.016700
     39 H9          -2.3460    -1.9550     0.3140 hc         1 K5Y       0.016700
     40 H10         -4.5990    -0.9320     2.0810 hc         1 K5Y       0.022700
     41 H11         -4.5980    -0.9330     0.3120 hc         1 K5Y       0.022700
     42 H12         -4.3860    -3.3970     2.0830 h1         1 K5Y      -0.010300
     43 H13         -4.3860    -3.3980     0.3140 h1         1 K5Y      -0.010300
     44 H14         -6.4380    -4.7300     0.3130 h1         1 K5Y      -0.010800
     45 H15         -6.4370    -4.7310     2.0820 h1         1 K5Y      -0.010800
     46 H16         -8.6020    -3.5350     0.3150 hc         1 K5Y       0.023200
     47 H17         -8.6020    -3.5350     2.0840 hc         1 K5Y       0.023200
     48 H18         -8.5850    -6.0070     0.3140 hc         1 K5Y       0.014700
     49 H19         -8.5840    -6.0080     2.0820 hc         1 K5Y       0.014700
     50 H20        -10.7490    -4.8130     2.0840 hc         1 K5Y       0.015700
     51 H21        -10.7500    -4.8120     0.3150 hc         1 K5Y       0.015700
     52 H22        -10.7320    -7.2860     0.3140 hc         1 K5Y       0.019200
     53 H23        -10.7310    -7.2860     2.0830 hc         1 K5Y       0.019200
     54 H24        -12.8970    -6.0900     0.3150 h1         1 K5Y       0.006200
     55 H25        -12.8960    -6.0900     2.0840 h1         1 K5Y       0.006200
     56 H26        -12.8660    -8.4730     2.0080 hn         1 K5Y       0.246800
     57 H28        -14.9750    -7.3640     0.3150 h1         1 K5Y       0.017200
     58 H29        -14.9740    -7.3640     2.0840 h1         1 K5Y       0.017200
     59 H30        -14.8910    -9.8360     2.0840 h1         1 K5Y      -0.000300
     60 H31        -14.5570   -10.8900     0.2640 ho         1 K5Y       0.388000
     61 H32        -16.8860    -9.4080     3.3270 ha         1 K5Y       0.125000
     62 H33        -16.8660    -9.0270    -0.9260 ha         1 K5Y       0.120000
     63 H34        -19.3280    -8.8960    -0.9310 ha         1 K5Y       0.112000
     64 H35        -21.1270    -8.2830     0.6720 ho         1 K5Y       0.404000
     65 H36        -20.1400    -8.4010     3.8340 h1         1 K5Y      -0.003300
     66 H37        -20.2250   -10.1610     3.6750 h1         1 K5Y      -0.003300
     67 H38        -19.1110    -9.5200     5.5900 ho         1 K5Y       0.392000
@<TRIPOS>BOND
     1     1     2 ar  
     2     1     6 ar  
     3     1    31 1   
     4     2     3 ar  
     5     2    32 1   
     6     3     4 ar  
     7     3    33 1   
     8     4     5 ar  
     9     4    34 1   
    10     5     6 ar  
    11     5    35 1   
    12     6     7 1   
    13     7     8 1   
    14     7    36 1   
    15     7    37 1   
    16     8     9 1   
    17     8    38 1   
    18     8    39 1   
    19     9    10 1   
    20     9    40 1   
    21     9    41 1   
    22    10    11 1   
    23    10    42 1   
    24    10    43 1   
    25    11    12 1   
    26    12    13 1   
    27    12    44 1   
    28    12    45 1   
    29    13    14 1   
    30    13    46 1   
    31    13    47 1   
    32    14    15 1   
    33    14    48 1   
    34    14    49 1   
    35    15    16 1   
    36    15    50 1   
    37    15    51 1   
    38    16    17 1   
    39    16    52 1   
    40    16    53 1   
    41    17    18 1   
    42    17    54 1   
    43    17    55 1   
    44    18    19 1   
    45    18    56 1   
    46    19    20 1   
    47    19    57 1   
    48    19    58 1   
    49    20    21 1   
    50    20    22 1   
    51    20    59 1   
    52    21    60 1   
    53    22    23 ar  
    54    22    24 ar  
    55    23    28 ar  
    56    23    61 1   
    57    24    25 ar  
    58    24    62 1   
    59    25    26 ar  
    60    25    63 1   
    61    26    27 1   
    62    26    28 ar  
    63    27    64 1   
    64    28    29 1   
    65    29    30 1   
    66    29    65 1   
    67    29    66 1   
    68    30    67 1   
@<TRIPOS>SUBSTRUCTURE
     1 K5Y         1 TEMP              0 ****  ****    0 ROOT
