@<TRIPOS>MOLECULE
molecule
   83    87     1     0     0
SMALL
bcc


@<TRIPOS>ATOM
      1 O45          0.0000     0.0000     0.0000 o          1 K62      -0.510100
      2 C46          1.2130     0.0000     0.0000 c          1 K62       0.571700
      3 C47          1.9670     0.0000     1.3050 c3         1 K62      -0.190100
      4 C41          1.9490    -0.0070    -1.2750 ca         1 K62      -0.149600
      5 C40          3.3470    -0.0070    -1.2790 ca         1 K62      -0.119000
      6 C45          4.0330    -0.0130    -2.4760 ca         1 K62      -0.117000
      7 C44          3.3430    -0.0190    -3.6740 ca         1 K62      -0.154000
      8 C42          1.2520    -0.0190    -2.4870 ca         1 K62      -0.100000
      9 C43          1.9520    -0.0190    -3.6820 ca         1 K62       0.082600
     10 N24          1.2600    -0.0250    -4.8990 n          1 K62      -0.414000
     11 C26         -0.0730    -0.0250    -5.0370 c          1 K62       0.830600
     12 O27         -0.8380    -0.0200    -4.0920 o          1 K62      -0.598500
     13 O28         -0.4860    -0.0320    -6.3090 os         1 K62      -0.330900
     14 C25          1.8770    -0.0260    -6.2330 c3         1 K62       0.061000
     15 C29          0.6720    -0.0370    -7.1940 c3         1 K62       0.043100
     16 C21          0.6810    -1.2800    -8.0460 c          1 K62       0.640100
     17 O22         -0.1690    -2.1310    -7.8850 o          1 K62      -0.539100
     18 N20          1.6320    -1.4460    -8.9870 ns         1 K62      -0.585900
     19 C19          1.6390    -2.6550    -9.8150 c3         1 K62       0.102700
     20 C32          0.7000    -2.4620   -11.0080 c3         1 K62      -0.047100
     21 C38         -0.7180    -2.3260   -10.5140 ca         1 K62      -0.078300
     22 C37         -1.2260    -1.0780   -10.2070 ca         1 K62      -0.121500
     23 C36         -2.5260    -0.9530    -9.7550 ca         1 K62      -0.114500
     24 C35         -3.3180    -2.0770    -9.6090 ca         1 K62      -0.119000
     25 C34         -2.8100    -3.3250    -9.9160 ca         1 K62      -0.114500
     26 C33         -1.5110    -3.4490   -10.3730 ca         1 K62      -0.121500
     27 C17          3.0580    -2.9180   -10.3210 c3         1 K62       0.104100
     28 O18          3.4560    -1.8590   -11.1940 oh         1 K62      -0.598800
     29 C16          3.0920    -4.2450   -11.0810 c3         1 K62       0.235800
     30 N11          4.4740    -4.5620   -11.4480 n3         1 K62      -0.811500
     31 C12          5.4550    -4.8750   -10.4060 c3         1 K62       0.238800
     32 C13          5.3640    -6.3590   -10.0470 c3         1 K62      -0.097700
     33 C15          5.7760    -7.2030   -11.2560 c3         1 K62      -0.088600
     34 C14          6.3000    -6.6590    -8.8740 c3         1 K62      -0.088600
     35 S8           4.9270    -4.5700   -13.0410 sy         1 K62       1.434200
     36 O9           6.1680    -5.2600   -13.1010 o          1 K62      -0.634800
     37 O10          3.7810    -4.9650   -13.7820 o          1 K62      -0.634800
     38 C5           5.2620    -2.9020   -13.4950 ca         1 K62      -0.307500
     39 C6           6.5020    -2.3490   -13.2280 ca         1 K62      -0.029000
     40 C7           6.7690    -1.0400   -13.5840 ca         1 K62      -0.144000
     41 C4           4.2870    -2.1490   -14.1230 ca         1 K62       0.005000
     42 C3           4.5490    -0.8360   -14.4820 ca         1 K62       0.025100
     43 O29          3.7760     0.1050   -15.1000 os         1 K62      -0.319900
     44 C2           5.7960    -0.2790   -14.2080 ca         1 K62       0.099100
     45 O19          5.8030     1.0120   -14.6530 os         1 K62      -0.324900
     46 C18          4.6950     1.1100   -15.5670 c3         1 K62       0.329200
     47 H47          1.2630     0.0050     2.1290 hc         1 K62       0.061700
     48 H47A         2.5930     0.8820     1.3600 hc         1 K62       0.061700
     49 H47B         2.5860    -0.8870     1.3650 hc         1 K62       0.061700
     50 H40          3.8920    -0.0020    -0.3420 ha         1 K62       0.135000
     51 H45          5.1160    -0.0140    -2.4770 ha         1 K62       0.135000
     52 H44          3.8880    -0.0220    -4.6100 ha         1 K62       0.127000
     53 H42          0.1690    -0.0180    -2.4910 ha         1 K62       0.209000
     54 H25          2.3690     0.9320    -6.3550 h1         1 K62       0.079200
     55 H25A         2.3820    -0.9770    -6.3480 h1         1 K62       0.079200
     56 H29          0.6770     0.8530    -7.8130 h1         1 K62       0.093700
     57 HN20         2.3180    -0.7330    -9.1370 hn         1 K62       0.306500
     58 H19          1.3040    -3.4990    -9.2240 h1         1 K62       0.090700
     59 H32          0.9820    -1.5660   -11.5480 hc         1 K62       0.063200
     60 H32A         0.7720    -3.3190   -11.6660 hc         1 K62       0.063200
     61 H37         -0.6060    -0.1970   -10.3210 ha         1 K62       0.119500
     62 H36         -2.9240     0.0250    -9.5140 ha         1 K62       0.127500
     63 H35         -4.3360    -1.9790    -9.2530 ha         1 K62       0.129000
     64 H34         -3.4310    -4.2050    -9.8030 ha         1 K62       0.127500
     65 H33         -1.1120    -4.4270   -10.6140 ha         1 K62       0.119500
     66 H17          3.7390    -2.9660    -9.4790 h1         1 K62       0.042700
     67 HO18         3.9880    -1.2420   -10.7190 ho         1 K62       0.401000
     68 H16          2.4900    -4.1620   -11.9780 h1         1 K62       0.078200
     69 H16A         2.6960    -5.0320   -10.4510 h1         1 K62       0.078200
     70 H12          6.4510    -4.6520   -10.7690 h1         1 K62       0.051200
     71 H12A         5.2500    -4.2770    -9.5260 h1         1 K62       0.051200
     72 H13          4.3460    -6.6010    -9.7680 hc         1 K62       0.052700
     73 H15          6.7200    -6.8410   -11.6440 hc         1 K62       0.040033
     74 H15A         5.0160    -7.1270   -12.0240 hc         1 K62       0.040033
     75 H15B         5.8820    -8.2380   -10.9540 hc         1 K62       0.040033
     76 H14          6.0250    -6.0430    -8.0260 hc         1 K62       0.040033
     77 H14A         7.3210    -6.4420    -9.1610 hc         1 K62       0.040033
     78 H14B         6.2160    -7.7040    -8.6030 hc         1 K62       0.040033
     79 H6           7.2750    -2.9530   -12.7690 ha         1 K62       0.153000
     80 H7           7.7410    -0.6100   -13.3740 ha         1 K62       0.148000
     81 H4           3.3400    -2.6030   -14.3880 ha         1 K62       0.167000
     82 H18          5.0160     0.8880   -16.5780 h2         1 K62       0.074200
     83 H18A         4.2420     2.0920   -15.5110 h2         1 K62       0.074200
@<TRIPOS>BOND
     1     1     2 2
     2     2     3 1
     3     2     4 1
     4     4     5 ar
     5     4     8 ar
     6     5     6 ar
     7     6     7 ar
     8     7     9 ar
     9     8     9 ar
    10     9    10 1
    11    10    11 1
    12    10    14 1
    13    11    12 2
    14    11    13 1
    15    13    15 1
    16    14    15 1
    17    15    16 1
    18    16    17 2
    19    16    18 1
    20    18    19 1
    21    19    20 1
    22    19    27 1
    23    20    21 1
    24    21    22 ar
    25    21    26 ar
    26    22    23 ar
    27    23    24 ar
    28    24    25 ar
    29    25    26 ar
    30    27    28 1
    31    27    29 1
    32    29    30 1
    33    30    31 1
    34    30    35 1
    35    31    32 1
    36    32    33 1
    37    32    34 1
    38    35    36 2
    39    35    37 2
    40    35    38 1
    41    38    39 ar
    42    38    41 ar
    43    39    40 ar
    44    40    44 ar
    45    41    42 ar
    46    42    43 1
    47    42    44 ar
    48    43    46 1
    49    44    45 1
    50    45    46 1
    51     3    47 1
    52     3    48 1
    53     3    49 1
    54     5    50 1
    55     6    51 1
    56     7    52 1
    57     8    53 1
    58    14    54 1
    59    14    55 1
    60    15    56 1
    61    18    57 1
    62    19    58 1
    63    20    59 1
    64    20    60 1
    65    22    61 1
    66    23    62 1
    67    24    63 1
    68    25    64 1
    69    26    65 1
    70    27    66 1
    71    28    67 1
    72    29    68 1
    73    29    69 1
    74    31    70 1
    75    31    71 1
    76    32    72 1
    77    33    73 1
    78    33    74 1
    79    33    75 1
    80    34    76 1
    81    34    77 1
    82    34    78 1
    83    39    79 1
    84    40    80 1
    85    41    81 1
    86    46    82 1
    87    46    83 1
@<TRIPOS>SUBSTRUCTURE
     1 K62         1 TEMP              0 ****  ****    0 ROOT
