@<TRIPOS>MOLECULE
K64
   78    81     1     0     0
SMALL
bcc


@<TRIPOS>ATOM
      1 C1           0.0000     0.0000     0.0000 ca         1 K64      -0.156000
      2 C2           1.3820     0.0000     0.0000 ca         1 K64      -0.084000
      3 C3           2.0770     0.0000     1.1920 ca         1 K64      -0.109000
      4 C4           1.3830     0.0010     2.4030 ca         1 K64      -0.135600
      5 C5          -0.0120    -0.0040     2.4010 ca         1 K64      -0.040300
      6 C6          -0.6990     0.0010     1.1990 ca         1 K64       0.124100
      7 C9          -0.7690    -0.0030     3.7040 c3         1 K64       0.045200
      8 C13          2.1240     0.0020     3.6820 c          1 K64       0.599700
      9 N14          3.4660     0.1230     3.6840 ns         1 K64      -0.196900
     10 C15          4.2000     0.1240     4.9520 c3         1 K64      -0.063300
     11 C16          4.4770    -1.3180     5.3820 c3         1 K64       0.019900
     12 C17          5.5060     0.8540     4.7750 c          1 K64       0.582100
     13 C19          6.1840     1.4850     5.9650 c3         1 K64       0.248300
     14 N20          7.6240     1.6060     5.7010 n3         1 K64      -0.472600
     15 C21          8.1950     2.3600     6.8190 c3         1 K64       0.034500
     16 C22          9.6550     1.9760     7.1470 c3         1 K64       0.079100
     17 S23          9.9360     0.5520     6.0150 ss         1 K64      -0.394200
     18 C24          8.1620     0.2160     5.6190 c3         1 K64       0.272900
     19 C27          3.1730    -2.0080     5.6900 ca         1 K64      -0.081300
     20 C30          2.4940    -2.6810     4.6910 ca         1 K64      -0.090500
     21 C31          1.2980    -3.3140     4.9730 ca         1 K64      -0.090500
     22 C32          0.7810    -3.2750     6.2540 ca         1 K64      -0.097000
     23 C33          1.4590    -2.6050     7.2540 ca         1 K64      -0.090500
     24 C34          2.6570    -1.9750     6.9730 ca         1 K64      -0.090500
     25 O41          6.0100     0.9340     3.6810 o          1 K64      -0.507100
     26 O44          5.9770     0.6690     7.1190 oh         1 K64      -0.600800
     27 C45         10.6090     3.1280     6.8270 c3         1 K64      -0.000600
     28 C49          9.7890     1.5470     8.6090 c3         1 K64      -0.000600
     29 C53          8.1460     3.8280     6.4840 c          1 K64       0.566100
     30 N55          8.1990     4.7460     7.4690 ns         1 K64      -0.209900
     31 C56          8.1520     6.1740     7.1430 c3         1 K64       0.109300
     32 O57          8.0620     4.1840     5.3270 o          1 K64      -0.604100
     33 O60         -2.0580     0.0010     1.1940 oh         1 K64      -0.479100
     34 O62          1.5220    -0.1060     4.7330 o          1 K64      -0.643100
     35 C63          8.2250     6.9820     8.4120 ca         1 K64      -0.129300
     36 C66          7.0720     7.5090     8.9640 ca         1 K64      -0.079000
     37 C67          7.1380     8.2490    10.1290 ca         1 K64      -0.109000
     38 C68          8.3580     8.4620    10.7440 ca         1 K64      -0.086000
     39 C69          9.5110     7.9320    10.1950 ca         1 K64      -0.102000
     40 C70          9.4440     7.1900     9.0310 ca         1 K64      -0.071300
     41 C75         10.7000     6.6120     8.4320 c3         1 K64       0.046200
     42 H33         -0.5400     0.0020    -0.9390 ha         1 K64       0.109000
     43 H32          1.9220    -0.0010    -0.9390 ha         1 K64       0.106000
     44 H31          3.1600     0.0020     1.1880 ha         1 K64       0.108000
     45 H35         -1.8220     0.1570     3.5100 hc         1 K64       0.026700
     46 H36         -0.3940     0.7920     4.3390 hc         1 K64       0.026700
     47 H37         -0.6340    -0.9560     4.2010 hc         1 K64       0.026700
     48 H30          3.9620     0.2070     2.8190 hn         1 K64       0.200500
     49 H22          3.6090     0.6200     5.7110 h1         1 K64       0.067700
     50 H23          4.9830    -1.8430     4.5810 hc         1 K64       0.033200
     51 H24          5.1030    -1.3180     6.2660 hc         1 K64       0.033200
     52 H20          5.7650     2.4690     6.1400 h2         1 K64       0.039700
     53 H11          7.5880     2.1820     7.6990 h1         1 K64       0.032700
     54 H12          7.7090    -0.4240     6.3660 h2         1 K64       0.065200
     55 H13          8.0530    -0.1890     4.6200 h2         1 K64       0.065200
     56 H25          2.8990    -2.7120     3.6870 ha         1 K64       0.098500
     57 H26          0.7660    -3.8410     4.1890 ha         1 K64       0.099500
     58 H27         -0.1580    -3.7700     6.4750 ha         1 K64       0.099000
     59 H28          1.0550    -2.5760     8.2580 ha         1 K64       0.099500
     60 H29          3.1900    -1.4490     7.7560 ha         1 K64       0.098500
     61 H21          5.4860     1.1520     7.7620 ho         1 K64       0.404000
     62 H14         11.6280     2.7610     6.8210 hc         1 K64       0.022200
     63 H15         10.3670     3.5380     5.8540 hc         1 K64       0.022200
     64 H16         10.5080     3.9000     7.5800 hc         1 K64       0.022200
     65 H17          9.2910     2.2690     9.2450 hc         1 K64       0.022200
     66 H18         10.8380     1.4930     8.8760 hc         1 K64       0.022200
     67 H19          9.3320     0.5730     8.7430 hc         1 K64       0.022200
     68 H10          8.2340     4.4530     8.4250 hn         1 K64       0.179500
     69 H8           7.2260     6.3960     6.6250 h1         1 K64       0.033700
     70 H9           8.9910     6.4260     6.5060 h1         1 K64       0.033700
     71 H34         -2.3700     0.5900     0.5260 ho         1 K64       0.401000
     72 H7           6.1160     7.3430     8.4820 ha         1 K64       0.107000
     73 H6           6.2350     8.6630    10.5600 ha         1 K64       0.106000
     74 H5           8.4110     9.0430    11.6570 ha         1 K64       0.104000
     75 H4          10.4660     8.0970    10.6780 ha         1 K64       0.109000
     76 H1          10.7780     5.5650     8.6970 hc         1 K64       0.015033
     77 H2          10.6640     6.7100     7.3530 hc         1 K64       0.015033
     78 H3          11.5610     7.1470     8.8140 hc         1 K64       0.015033
@<TRIPOS>BOND
     1     1     2 ar  
     2     1     6 ar  
     3     1    42 1   
     4     2     3 ar  
     5     2    43 1   
     6     3     4 ar  
     7     3    44 1   
     8     4     5 ar  
     9     4     8 1   
    10     5     6 ar  
    11     5     7 1   
    12     6    33 1   
    13     7    45 1   
    14     7    46 1   
    15     7    47 1   
    16     8     9 1   
    17     8    34 2   
    18     9    10 1   
    19     9    48 1   
    20    10    11 1   
    21    10    12 1   
    22    10    49 1   
    23    11    19 1   
    24    11    50 1   
    25    11    51 1   
    26    12    13 1   
    27    12    25 2   
    28    13    14 1   
    29    13    26 1   
    30    13    52 1   
    31    14    15 1   
    32    14    18 1   
    33    15    16 1   
    34    15    29 1   
    35    15    53 1   
    36    16    17 1   
    37    16    27 1   
    38    16    28 1   
    39    17    18 1   
    40    18    54 1   
    41    18    55 1   
    42    19    20 ar  
    43    19    24 ar  
    44    20    21 ar  
    45    20    56 1   
    46    21    22 ar  
    47    21    57 1   
    48    22    23 ar  
    49    22    58 1   
    50    23    24 ar  
    51    23    59 1   
    52    24    60 1   
    53    26    61 1   
    54    27    62 1   
    55    27    63 1   
    56    27    64 1   
    57    28    65 1   
    58    28    66 1   
    59    28    67 1   
    60    29    30 1   
    61    29    32 2   
    62    30    31 1   
    63    30    68 1   
    64    31    35 1   
    65    31    69 1   
    66    31    70 1   
    67    33    71 1   
    68    35    36 ar  
    69    35    40 ar  
    70    36    37 ar  
    71    36    72 1   
    72    37    38 ar  
    73    37    73 1   
    74    38    39 ar  
    75    38    74 1   
    76    39    40 ar  
    77    39    75 1   
    78    40    41 1   
    79    41    76 1   
    80    41    77 1   
    81    41    78 1   
@<TRIPOS>SUBSTRUCTURE
     1 K64         1 TEMP              0 ****  ****    0 ROOT
