@<TRIPOS>MOLECULE
K66
   28    29     1     0     0
SMALL
bcc


@<TRIPOS>ATOM
      1 C1           0.0000     0.0000     0.0000 ca         1 K66       0.109100
      2 C2           1.3980     0.0000     0.0000 ca         1 K66       0.088400
      3 C3           2.0890     0.0000     1.2220 ca         1 K66      -0.231200
      4 C4           1.3860    -0.0000     2.4180 ca         1 K66       0.098100
      5 C5           0.0040    -0.0000     2.4020 ca         1 K66       0.038100
      6 C6          -0.6850     0.0060     1.1960 ca         1 K66       0.039100
      7 Br13         2.3140    -0.0000     4.0650 br         1 K66      -0.067100
      8 Br15        -0.9550    -0.0010     4.0310 br         1 K66      -0.111100
      9 Br17        -2.5760     0.0050     1.1960 br         1 K66      -0.119100
     10 Br19        -0.9490    -0.0010    -1.6360 br         1 K66      -0.122100
     11 N21          2.3310    -0.0010    -0.9880 nc         1 K66      -0.577100
     12 N23          3.4370    -0.0000     0.9020 na         1 K66       0.454700
     13 C25          3.5300    -0.0000    -0.4610 cd         1 K66       0.316700
     14 N28          4.7100    -0.0020    -1.1750 nh         1 K66      -0.429600
     15 C30          4.7540    -1.1270    -2.1180 c3         1 K66       0.179600
     16 C32          4.9040     1.2770    -1.8720 c3         1 K66       0.179600
     17 C34          4.5560     0.0000     1.8480 c3         1 K66      -0.199700
     18 C36          4.8540    -1.4140     2.2740 c          1 K66       0.968600
     19 O38          5.8470    -1.6590     3.1440 o          1 K66      -0.871800
     20 O40          4.2000    -2.3290     1.8310 o          1 K66      -0.871800
     21 H30          4.0750    -0.9360    -2.9400 h1         1 K66       0.005367
     22 H30A         4.4570    -2.0360    -1.6090 h1         1 K66       0.005367
     23 H30B         5.7610    -1.2390    -2.5000 h1         1 K66       0.005367
     24 H32          5.9060     1.3160    -2.2830 h1         1 K66       0.005367
     25 H32A         4.1810     1.3640    -2.6740 h1         1 K66       0.005367
     26 H32B         4.7680     2.0930    -1.1730 h1         1 K66       0.005367
     27 H34          5.4310     0.4260     1.3720 h1         1 K66       0.047200
     28 H34A         4.2940     0.5910     2.7170 h1         1 K66       0.047200
@<TRIPOS>BOND
     1     1     2 ar  
     2     1     6 ar  
     3     1    10 1   
     4     2     3 ar  
     5     2    11 1   
     6     3     4 ar  
     7     3    12 1   
     8     4     5 ar  
     9     4     7 1   
    10     5     6 ar  
    11     5     8 1   
    12     6     9 1   
    13    11    13 2   
    14    12    13 1   
    15    12    17 1   
    16    13    14 1   
    17    14    15 1   
    18    14    16 1   
    19    15    21 1   
    20    15    22 1   
    21    15    23 1   
    22    16    24 1   
    23    16    25 1   
    24    16    26 1   
    25    17    18 1   
    26    17    27 1   
    27    17    28 1   
    28    18    19 1   
    29    18    20 1   
@<TRIPOS>SUBSTRUCTURE
     1 K66         1 TEMP              0 ****  ****    0 ROOT
