@<TRIPOS>MOLECULE
molecule
   70    73     1     0     0
SMALL
bcc


@<TRIPOS>ATOM
      1 O2           0.0000     0.0000     0.0000 o          1 K67      -0.637800
      2 S1           1.4210     0.0000     0.0000 sy         1 K67       1.419200
      3 O1           2.1980     0.0000     1.1890 o          1 K67      -0.637800
      4 C9           1.9190    -1.4180    -0.9200 ca         1 K67      -0.344500
      5 C10          1.0140    -2.0540    -1.7500 ca         1 K67       0.019500
      6 C11          1.4030    -3.1640    -2.4750 ca         1 K67      -0.206000
      7 C12          2.7030    -3.6380    -2.3720 ca         1 K67       0.203100
      8 O7           3.0880    -4.7290    -3.0850 os         1 K67      -0.326900
      9 C23          4.4410    -5.1610    -2.9290 c3         1 K67       0.134400
     10 C24          4.6870    -6.3930    -3.8040 c3         1 K67      -0.094100
     11 C13          3.6080    -2.9970    -1.5390 ca         1 K67      -0.206000
     12 C14          3.2140    -1.8890    -0.8150 ca         1 K67       0.019500
     13 N1           1.8890     1.3340    -0.8640 nu         1 K67      -0.777500
     14 C8           1.2440     1.6500    -2.0630 ca         1 K67       0.128600
     15 C3           1.9440     1.6330    -3.2500 ca         1 K67      -0.049300
     16 C2           3.4060     1.2690    -3.2470 c3         1 K67      -0.131100
     17 C16          3.5520    -0.2300    -3.3010 c          1 K67       0.552100
     18 O3           2.5690    -0.9310    -3.3390 o          1 K67      -0.512100
     19 C41          4.9240    -0.8540    -3.3070 c3         1 K67      -0.191100
     20 C4           1.3170     1.9450    -4.4530 ca         1 K67      -0.177000
     21 C7          -0.1260     1.9840    -2.0650 ca         1 K67      -0.028000
     22 C37         -0.8700     2.0070    -0.8750 ca         1 K67      -0.072000
     23 C38         -2.1920     2.3330    -0.9120 ca         1 K67      -0.127000
     24 C39         -2.8190     2.6470    -2.1160 ca         1 K67      -0.111000
     25 C40         -2.1290     2.6350    -3.2900 ca         1 K67      -0.133000
     26 C6          -0.7640     2.3030    -3.2890 ca         1 K67      -0.040000
     27 C5          -0.0180     2.2800    -4.4870 ca         1 K67       0.165600
     28 N2          -0.6330     2.5930    -5.7030 nu         1 K67      -0.762500
     29 S2          -0.2070     1.7780    -7.0800 sy         1 K67       1.430200
     30 O6          -1.0990     2.2130    -8.0970 o          1 K67      -0.638800
     31 O5           1.2050     1.8830    -7.1890 o          1 K67      -0.638800
     32 C17         -0.5590     0.0730    -6.8060 ca         1 K67      -0.358500
     33 C18          0.4050    -0.7520    -6.2580 ca         1 K67       0.014500
     34 C19          0.1310    -2.0880    -6.0370 ca         1 K67      -0.212000
     35 C20         -1.1160    -2.6000    -6.3660 ca         1 K67       0.197100
     36 C21         -2.0820    -1.7720    -6.9150 ca         1 K67      -0.212000
     37 C22         -1.8020    -0.4370    -7.1340 ca         1 K67       0.014500
     38 O8          -1.3900    -3.9150    -6.1500 os         1 K67      -0.325900
     39 C25         -2.6930    -4.3740    -6.5130 c3         1 K67       0.133400
     40 C26         -2.8130    -5.8660    -6.1980 c3         1 K67      -0.093100
     41 H1          -0.0000    -1.6840    -1.8300 ha         1 K67       0.147500
     42 H2           0.6940    -3.6620    -3.1260 ha         1 K67       0.142000
     43 H3           4.6220    -5.4130    -1.8910 h1         1 K67       0.035200
     44 H4           5.1110    -4.3650    -3.2300 h1         1 K67       0.035200
     45 H5           3.7430    -6.7530    -4.1940 hc         1 K67       0.050033
     46 H6           5.1520    -7.1700    -3.2100 hc         1 K67       0.050033
     47 H7           5.3400    -6.1270    -4.6260 hc         1 K67       0.050033
     48 H8           4.6240    -3.3650    -1.4560 ha         1 K67       0.142000
     49 H9           3.9210    -1.3880    -0.1640 ha         1 K67       0.147500
     50 H10          2.5970     1.9410    -0.5020 hn         1 K67       0.459800
     51 H11          3.8900     1.7100    -4.1100 hc         1 K67       0.074200
     52 H12          3.8690     1.6440    -2.3420 hc         1 K67       0.074200
     53 H13          5.3150    -0.8760    -2.2970 hc         1 K67       0.060033
     54 H14          5.5830    -0.2690    -3.9370 hc         1 K67       0.060033
     55 H15          4.8590    -1.8650    -3.6920 hc         1 K67       0.060033
     56 H16          1.8870     1.9250    -5.3740 ha         1 K67       0.184000
     57 H17         -0.3960     1.7660     0.0680 ha         1 K67       0.157000
     58 H18         -2.7630     2.3500     0.0080 ha         1 K67       0.134000
     59 H19         -3.8720     2.9030    -2.1190 ha         1 K67       0.128000
     60 H20         -2.6290     2.8810    -4.2180 ha         1 K67       0.126000
     61 H21         -1.3520     3.2890    -5.7360 hn         1 K67       0.466800
     62 H22          1.3780    -0.3510    -6.0020 ha         1 K67       0.152000
     63 H23          0.8870    -2.7340    -5.6080 ha         1 K67       0.149500
     64 H24         -3.0560    -2.1710    -7.1720 ha         1 K67       0.149500
     65 H25         -2.5570     0.2110    -7.5630 ha         1 K67       0.152000
     66 H26         -3.4390    -3.8250    -5.9500 h1         1 K67       0.037700
     67 H27         -2.8500    -4.2150    -7.5730 h1         1 K67       0.037700
     68 H28         -3.7620    -6.2380    -6.5640 hc         1 K67       0.050033
     69 H29         -2.7560    -6.0150    -5.1260 hc         1 K67       0.050033
     70 H30         -2.0040    -6.4030    -6.6800 hc         1 K67       0.050033
@<TRIPOS>BOND
     1    40    39 1
     2    10     9 1
     3     9     8 1
     4    39    38 1
     5     8     7 1
     6     6     7 ar
     7     6     5 ar
     8     7    11 ar
     9     5     4 ar
    10    38    35 1
    11    34    35 ar
    12    34    33 ar
    13    35    36 ar
    14    11    12 ar
    15     4    12 ar
    16     4     2 1
    17     1     2 2
    18    18    17 2
    19    33    32 ar
    20     2     3 2
    21     2    13 1
    22    36    37 ar
    23    17    19 1
    24    17    16 1
    25    32    37 ar
    26    32    29 1
    27    16    15 1
    28    31    29 2
    29    13    14 1
    30    15    14 ar
    31    15    20 ar
    32    14    21 ar
    33    29    28 1
    34    29    30 2
    35    20    27 ar
    36    21    22 ar
    37    21    26 ar
    38    22    23 ar
    39    27    26 ar
    40    27    28 1
    41    26    25 ar
    42    23    24 ar
    43    25    24 ar
    44     5    41 1
    45     6    42 1
    46     9    43 1
    47     9    44 1
    48    10    45 1
    49    10    46 1
    50    10    47 1
    51    11    48 1
    52    12    49 1
    53    13    50 1
    54    16    51 1
    55    16    52 1
    56    19    53 1
    57    19    54 1
    58    19    55 1
    59    20    56 1
    60    22    57 1
    61    23    58 1
    62    24    59 1
    63    25    60 1
    64    28    61 1
    65    33    62 1
    66    34    63 1
    67    36    64 1
    68    37    65 1
    69    39    66 1
    70    39    67 1
    71    40    68 1
    72    40    69 1
    73    40    70 1
@<TRIPOS>SUBSTRUCTURE
     1 K67         1 TEMP              0 ****  ****    0 ROOT
