@<TRIPOS>MOLECULE
molecule
   20    21     1     0     0
SMALL
bcc


@<TRIPOS>ATOM
      1 C1           0.0000     0.0000     0.0000 ca         1 K68       0.063100
      2 C2           1.3980     0.0000     0.0000 ca         1 K68       0.112400
      3 C3           2.0900     0.0000     1.2220 ca         1 K68      -0.049200
      4 C4           1.3850    -0.0000     2.4180 ca         1 K68       0.046100
      5 C5           0.0050    -0.0010     2.4020 ca         1 K68       0.003100
      6 C6          -0.6840     0.0050     1.1960 ca         1 K68      -0.005900
      7 Br13        -0.9500     0.0000    -1.6360 br         1 K68      -0.078100
      8 Br15        -2.5750     0.0050     1.1960 br         1 K68      -0.081100
      9 Br17        -0.9530    -0.0010     4.0320 br         1 K68      -0.073100
     10 Br19         2.3140    -0.0020     4.0660 br         1 K68      -0.043100
     11 N21          2.3330     0.0000    -0.9850 nc         1 K68      -0.627100
     12 C23          3.5230     0.0000    -0.4580 cd         1 K68       0.461700
     13 N25          3.4340    -0.0000     0.8990 na         1 K68      -0.078300
     14 C28          4.5530     0.0010     1.8430 c3         1 K68      -0.094700
     15 C30          4.8590    -1.4140     2.2620 c          1 K68       0.874600
     16 O32          4.2070    -2.3300     1.8170 o          1 K68      -0.818300
     17 O34          5.8540    -1.6580     3.1290 o          1 K68      -0.818300
     18 H23          4.4500     0.0010    -1.0190 h5         1 K68       0.076800
     19 H28          5.4260     0.4330     1.3670 h1         1 K68       0.064700
     20 H28A         4.2900     0.5870     2.7150 h1         1 K68       0.064700
@<TRIPOS>BOND
     1     2     1 ar
     2     6     1 ar
     3     1     7 1
     4     3     2 ar
     5     2    11 1
     6     4     3 ar
     7    13     3 1
     8    10     4 1
     9     4     5 ar
    10     9     5 1
    11     5     6 ar
    12     6     8 1
    13    12    11 2
    14    13    12 1
    15    12    18 1
    16    14    13 1
    17    15    14 1
    18    14    19 1
    19    14    20 1
    20    16    15 1
    21    15    17 1
@<TRIPOS>SUBSTRUCTURE
     1 K68         1 TEMP              0 ****  ****    0 ROOT
