@<TRIPOS>MOLECULE
K68
   20    21     1     0     0
SMALL
bcc


@<TRIPOS>ATOM
      1 C1         -0.1210    0.0060    0.0040 ca        1 K68      0.044100
      2 C2          1.2510   -0.2470    0.0990 ca        1 K68      0.100400
      3 C3          1.9320   -0.1420    1.3950 ca        1 K68     -0.064200
      4 C4          1.2080    0.2120    2.5390 ca        1 K68      0.012100
      5 C5         -0.1630    0.4570    2.4040 ca        1 K68     -0.000900
      6 C6         -0.8170    0.3560    1.1610 ca        1 K68     -0.017900
      7 BR13       -0.9860   -0.1290   -1.6460 br        1 K68     -0.061100
      8 BR15       -2.6570    0.6980    1.0550 br        1 K68     -0.077100
      9 BR17       -1.1620    0.9330    3.9180 br        1 K68     -0.074100
     10 BR19        2.0100    0.3670    4.2200 br        1 K68     -0.059100
     11 N21         2.1780   -0.6100   -0.8860 nc        1 K68     -0.612100
     12 C23         3.3560   -0.7230   -0.2380 cd        1 K68      0.473700
     13 N25         3.2730   -0.4530    1.1390 na        1 K68     -0.100300
     14 C28         4.3520   -0.4920    2.0870 c3        1 K68     -0.124700
     15 C30         5.7840   -0.8750    1.5860 c         1 K68      0.926600
     16 O32         6.0080   -1.1110    0.3700 o         1 K68     -0.814300
     17 O34         6.6410   -0.9120    2.5060 o         1 K68     -0.814300
     18 H23         4.3340   -0.9970   -0.6940 h5        1 K68      0.144800
     19 H28         4.0900   -1.2380    2.8900 h1        1 K68      0.058700
     20 H28A        4.4470    0.5270    2.5570 h1        1 K68      0.058700
@<TRIPOS>BOND
     1    1    2 ar  
     2    1    6 ar  
     3    1    7 1   
     4    2    3 ar  
     5    2   11 1   
     6    3    4 ar  
     7    3   13 1   
     8    4    5 ar  
     9    4   10 1   
    10    5    6 ar  
    11    5    9 1   
    12    6    8 1   
    13   11   12 2   
    14   12   13 1   
    15   12   18 1   
    16   13   14 1   
    17   14   15 1   
    18   14   19 1   
    19   14   20 1   
    20   15   16 1   
    21   15   17 1   
@<TRIPOS>SUBSTRUCTURE
     1 K68         1 TEMP              0 ****  ****    0 ROOT
