@<TRIPOS>MOLECULE
K6H
   15    15     1     0     0
SMALL
bcc


@<TRIPOS>ATOM
      1 OAB         0.2940   -0.5570   -1.4860 o         1 K6H     -0.616500
      2 CAI         1.2800   -0.2820   -0.8060 c         1 K6H      0.707800
      3 OAG         1.3990   -0.9300    0.4140 os        1 K6H     -0.423900
      4 CAE         2.4250    0.6410   -0.9880 ce        1 K6H     -0.300200
      5 CAF         3.2120    0.5500    0.1030 c2        1 K6H     -0.074200
      6 CAK         2.6120   -0.4410    1.0810 c3        1 K6H      0.148300
      7 CAJ         3.5510   -1.5880    1.4000 c3        1 K6H     -0.063300
      8 CLAD        2.9160   -2.5280    2.7610 cl        1 K6H     -0.224400
      9 CAH         4.9810   -1.0610    1.7420 c         1 K6H      0.921600
     10 OAA         5.0800    0.0990    2.2270 o         1 K6H     -0.813300
     11 OAC         5.9390   -1.8240    1.4620 o         1 K6H     -0.813300
     12 HAE         2.5380    1.2460   -1.8840 ha        1 K6H      0.159000
     13 HAK         2.2710    0.0790    2.0160 h1        1 K6H      0.106700
     14 HAF         4.1550    1.0470    0.3600 ha        1 K6H      0.208000
     15 HAJ         3.6080   -2.3090    0.5490 h1        1 K6H      0.075700
@<TRIPOS>BOND
     1    1    2 2   
     2    2    3 1   
     3    2    4 1   
     4    3    6 1   
     5    4    5 2   
     6    4   12 1   
     7    5    6 1   
     8    5   14 1   
     9    6    7 1   
    10    6   13 1   
    11    7    8 1   
    12    7    9 1   
    13    7   15 1   
    14    9   10 1   
    15    9   11 1   
@<TRIPOS>SUBSTRUCTURE
     1 K6H         1 TEMP              0 ****  ****    0 ROOT
