@<TRIPOS>MOLECULE
molecule
   15    15     1     0     0
SMALL
bcc


@<TRIPOS>ATOM
      1 OAB          0.0000     0.0000     0.0000 o          1 K6H      -0.604500
      2 CAI          1.2160     0.0000     0.0000 c          1 K6H       0.713800
      3 OAG          1.9880     0.0000     1.1020 os         1 K6H      -0.309900
      4 CAE          2.0560    -0.0070    -1.2010 ce         1 K6H      -0.268200
      5 CAF          3.3390    -0.0050    -0.8460 c2         1 K6H      -0.153200
      6 CAK          3.3770    -0.0010     0.6640 c3         1 K6H       0.152300
      7 CAJ          4.0890    -1.2560     1.1740 c3         1 K6H      -0.034300
      8 ClAD         3.3300    -2.7170     0.4410 cl         1 K6H      -0.229400
      9 CAH          3.9700    -1.3270     2.6750 c          1 K6H       0.883600
     10 OAA          2.9080    -1.1090     3.2070 o          1 K6H      -0.808300
     11 OAC          5.0440    -1.6330     3.4190 o          1 K6H      -0.808300
     12 HAE          1.7390     0.5290    -2.0870 ha         1 K6H       0.147000
     13 HAK          3.8790     0.8900     1.0200 h1         1 K6H       0.092700
     14 HAF          4.1920    -0.0080    -1.5130 ha         1 K6H       0.154000
     15 HAJ          5.1350    -1.2140     0.8960 h1         1 K6H       0.073700
@<TRIPOS>BOND
     1     1     2 2
     2     2     3 1
     3     2     4 1
     4     3     6 1
     5     4     5 2
     6     5     6 1
     7     6     7 1
     8     7     8 1
     9     7     9 1
    10     9    10 1
    11     9    11 1
    12     4    12 1
    13     6    13 1
    14     5    14 1
    15     7    15 1
@<TRIPOS>SUBSTRUCTURE
     1 K6H         1 TEMP              0 ****  ****    0 ROOT
