@<TRIPOS>MOLECULE
K6K
   69    74     1     0     0
SMALL
bcc


@<TRIPOS>ATOM
      1 C25          0.0000     0.0000     0.0000 c3         1 K6K       0.263700
      2 O2           1.4300     0.0000     0.0000 os         1 K6K      -0.363400
      3 C24          2.0460     0.0000     1.2100 cc         1 K6K       0.373100
      4 N7           1.4550    -0.0010     2.3840 nd         1 K6K      -0.418700
      5 N6           2.3340    -0.0000     3.3240 nd         1 K6K      -0.015000
      6 N8           3.3850    -0.0050     1.4270 na         1 K6K       0.601300
      7 C23          3.5450     0.0000     2.7960 cc         1 K6K      -0.363300
      8 C22          4.8450     0.0010     3.3370 cc         1 K6K       0.076000
      9 C21          5.9120     0.0010     2.4960 cd         1 K6K      -0.317300
     10 N9           4.5040    -0.0130     0.5930 nc         1 K6K      -0.725800
     11 C20          5.7140     0.0020     1.1010 cd         1 K6K       0.589200
     12 N5           6.8150     0.0030     0.2500 nh         1 K6K      -0.445300
     13 C17          8.1750     0.1420     0.7870 c3         1 K6K       0.161800
     14 C16          8.8720     1.3010     0.0690 c3         1 K6K      -0.042400
     15 C18          6.6400    -0.1420    -1.2010 c3         1 K6K       0.161800
     16 C19          7.3500     1.0200    -1.9020 c3         1 K6K      -0.042400
     17 C15          8.8140     1.0690    -1.4420 c3         1 K6K       0.013600
     18 C12          9.5300     2.1900    -2.1500 ca         1 K6K      -0.135300
     19 C11         10.6200     1.9140    -2.9540 ca         1 K6K      -0.054000
     20 C10         11.2770     2.9410    -3.6060 ca         1 K6K      -0.173500
     21 C13          9.0900     3.4930    -2.0000 ca         1 K6K      -0.054000
     22 C14          9.7420     4.5220    -2.6490 ca         1 K6K      -0.173500
     23 C9          10.8420     4.2490    -3.4520 ca         1 K6K       0.149100
     24 O1          11.4860     5.2610    -4.0910 os         1 K6K      -0.283900
     25 C8          10.9830     6.5820    -3.8860 c3         1 K6K       0.179400
     26 C7          11.8290     7.5790    -4.6800 c3         1 K6K       0.164800
     27 N4          11.6720     7.3220    -6.1130 nh         1 K6K      -0.457300
     28 C6          10.6130     7.9980    -6.8660 c3         1 K6K       0.202100
     29 C5          12.5280     6.4360    -6.7590 cc         1 K6K       0.587200
     30 C4          12.3690     6.1950    -8.1390 cc         1 K6K      -0.309300
     31 C3          13.1980     5.3320    -8.7810 cd         1 K6K       0.071000
     32 N2          13.4770     5.8390    -6.0770 nd         1 K6K      -0.698800
     33 N3          14.3480     4.9470    -6.7060 na         1 K6K       0.598300
     34 C2          14.2150     4.6860    -8.0520 cd         1 K6K      -0.360300
     35 N1          15.1580     3.8170    -8.3690 nc         1 K6K      -0.017000
     36 N           15.8470     3.5290    -7.3210 nc         1 K6K      -0.418700
     37 C1          15.3970     4.1980    -6.2830 cd         1 K6K       0.372100
     38 O           15.8860     4.1430    -5.0180 os         1 K6K      -0.361400
     39 C           17.0040     3.2830    -4.7910 c3         1 K6K       0.262700
     40 H251        -0.3610    -0.8840     0.5110 h1         1 K6K       0.002700
     41 H252        -0.3610     0.8850     0.5110 h1         1 K6K       0.002700
     42 H253        -0.3610    -0.0000    -1.0210 h1         1 K6K       0.002700
     43 H22          4.9930    -0.0000     4.4100 ha         1 K6K       0.122000
     44 H21          6.9170     0.0130     2.8990 ha         1 K6K       0.136000
     45 H171         8.7270    -0.7750     0.6170 h1         1 K6K       0.033950
     46 H172         8.1260     0.3500     1.8490 h1         1 K6K       0.033950
     47 H181         7.0720    -1.0800    -1.5260 h1         1 K6K       0.033950
     48 H182         5.5840    -0.1190    -1.4420 h1         1 K6K       0.033950
     49 H161         9.9070     1.3510     0.3860 hc         1 K6K       0.028950
     50 H162         8.3690     2.2300     0.3110 hc         1 K6K       0.028950
     51 H15          9.2930     0.1260    -1.6770 hc         1 K6K       0.032700
     52 H191         7.3140     0.8710    -2.9740 hc         1 K6K       0.028950
     53 H192         6.8600     1.9510    -1.6430 hc         1 K6K       0.028950
     54 H11         10.9590     0.8930    -3.0740 ha         1 K6K       0.107000
     55 H13          8.2320     3.7060    -1.3740 ha         1 K6K       0.107000
     56 H10         12.1330     2.7240    -4.2330 ha         1 K6K       0.119500
     57 H14          9.3990     5.5430    -2.5290 ha         1 K6K       0.119500
     58 H81C         9.9540     6.6330    -4.2230 h1         1 K6K       0.005700
     59 H82C        11.0300     6.8270    -2.8320 h1         1 K6K       0.005700
     60 H71C        11.5040     8.5880    -4.4560 h1         1 K6K       0.044700
     61 H72C        12.8710     7.4670    -4.4050 h1         1 K6K       0.044700
     62 H61C        11.0550     8.5930    -7.6570 h1         1 K6K       0.011700
     63 H62C         9.9490     7.2590    -7.2990 h1         1 K6K       0.011700
     64 H63C        10.0510     8.6420    -6.2010 h1         1 K6K       0.011700
     65 H4          11.5890     6.7060    -8.6900 ha         1 K6K       0.132000
     66 H3          13.0800     5.1430    -9.8420 ha         1 K6K       0.123000
     67 HC1         16.7380     2.2670    -5.0560 h1         1 K6K       0.002367
     68 HC2         17.8380     3.6080    -5.4010 h1         1 K6K       0.002367
     69 HC3         17.2840     3.3230    -3.7460 h1         1 K6K       0.002367
@<TRIPOS>BOND
     1     1     2 1   
     2     1    40 1   
     3     1    41 1   
     4     1    42 1   
     5     2     3 1   
     6     3     4 2   
     7     3     6 1   
     8     4     5 1   
     9     5     7 2   
    10     6     7 1   
    11     6    10 1   
    12     7     8 1   
    13     8     9 2   
    14     8    43 1   
    15     9    11 1   
    16     9    44 1   
    17    10    11 2   
    18    11    12 1   
    19    12    13 1   
    20    12    15 1   
    21    13    14 1   
    22    13    45 1   
    23    13    46 1   
    24    14    17 1   
    25    14    49 1   
    26    14    50 1   
    27    15    16 1   
    28    15    47 1   
    29    15    48 1   
    30    16    17 1   
    31    16    52 1   
    32    16    53 1   
    33    17    18 1   
    34    17    51 1   
    35    18    19 ar  
    36    18    21 ar  
    37    19    20 ar  
    38    19    54 1   
    39    20    23 ar  
    40    20    56 1   
    41    21    22 ar  
    42    21    55 1   
    43    22    23 ar  
    44    22    57 1   
    45    23    24 1   
    46    24    25 1   
    47    25    26 1   
    48    25    58 1   
    49    25    59 1   
    50    26    27 1   
    51    26    60 1   
    52    26    61 1   
    53    27    28 1   
    54    27    29 1   
    55    28    62 1   
    56    28    63 1   
    57    28    64 1   
    58    29    30 1   
    59    29    32 2   
    60    30    31 2   
    61    30    65 1   
    62    31    34 1   
    63    31    66 1   
    64    32    33 1   
    65    33    34 1   
    66    33    37 1   
    67    34    35 2   
    68    35    36 1   
    69    36    37 2   
    70    37    38 1   
    71    38    39 1   
    72    39    67 1   
    73    39    68 1   
    74    39    69 1   
@<TRIPOS>SUBSTRUCTURE
     1 K6K         1 TEMP              0 ****  ****    0 ROOT
