@<TRIPOS>MOLECULE
molecule
   15    16     1     0     0
SMALL
bcc


@<TRIPOS>ATOM
      1 C1           0.0000     0.0000     0.0000 ca         1 K6X       0.086100
      2 C2           1.4010     0.0000     0.0000 ca         1 K6X      -0.212900
      3 C3           2.0990     0.0000     1.2220 ca         1 K6X       0.011800
      4 C4           1.3860    -0.0010     2.4200 ca         1 K6X      -0.025900
      5 C5           0.0090    -0.0010     2.3950 ca         1 K6X       0.060100
      6 C6          -0.6780     0.0050     1.1850 ca         1 K6X      -0.029900
      7 Br13        -0.9480     0.0000    -1.6360 br         1 K6X      -0.032100
      8 Br15        -2.5700     0.0050     1.1830 br         1 K6X      -0.033100
      9 Br17        -0.9570    -0.0030     4.0200 br         1 K6X      -0.024100
     10 Br19         2.3050    -0.0010     4.0720 br         1 K6X      -0.052100
     11 N21          3.4350     0.0000     0.9140 na         1 K6X      -0.028100
     12 N23          3.5830    -0.0000    -0.4770 nc         1 K6X      -0.452100
     13 C25          2.4140    -0.0000    -1.0510 cd         1 K6X       0.346900
     14 Br28         2.0860     0.0010    -2.9130 br         1 K6X       0.034700
     15 HN21         4.1850     0.0000     1.5780 hn         1 K6X       0.350700
@<TRIPOS>BOND
     1     6     1 ar
     2     1     2 ar
     3     1     7 1
     4     3     2 ar
     5     2    13 1
     6     4     3 ar
     7     3    11 1
     8    10     4 1
     9     5     4 ar
    10     9     5 1
    11     5     6 ar
    12     8     6 1
    13    11    12 1
    14    13    12 2
    15    13    14 1
    16    11    15 1
@<TRIPOS>SUBSTRUCTURE
     1 K6X         1 TEMP              0 ****  ****    0 ROOT
