@<TRIPOS>MOLECULE
K6X
   15    16     1     0     0
SMALL
bcc


@<TRIPOS>ATOM
      1 C1         -0.0440    0.0030   -0.0380 ca        1 K6X      0.070100
      2 C2          1.3510    0.0010   -0.0360 ca        1 K6X     -0.166900
      3 C3          2.0650   -0.0010    1.2190 ca        1 K6X     -0.024200
      4 C4          1.3900   -0.0020    2.4500 ca        1 K6X     -0.018900
      5 C5         -0.0020   -0.0000    2.4150 ca        1 K6X      0.041100
      6 C6         -0.7110    0.0020    1.1890 ca        1 K6X     -0.025900
      7 BR13       -0.9850    0.0070   -1.6470 br        1 K6X     -0.017100
      8 BR15       -2.5800    0.0050    1.2170 br        1 K6X     -0.024100
      9 BR17       -0.9490   -0.0010    4.0260 br        1 K6X     -0.020100
     10 BR19        2.3550   -0.0050    4.0420 br        1 K6X     -0.035100
     11 N21         3.4270   -0.0030    0.8920 na        1 K6X      0.004900
     12 N23         3.6200   -0.0010   -0.4260 nc        1 K6X     -0.457100
     13 C25         2.4110    0.0010   -1.0420 cd        1 K6X      0.291900
     14 BR28        2.2050    0.0040   -2.8710 br        1 K6X      0.035700
     15 HN21        4.1970   -0.0050    1.5220 hn        1 K6X      0.345700
@<TRIPOS>BOND
     1    1    2 ar  
     2    1    6 ar  
     3    1    7 1   
     4    2    3 ar  
     5    2   13 1   
     6    3    4 ar  
     7    3   11 1   
     8    4    5 ar  
     9    4   10 1   
    10    5    6 ar  
    11    5    9 1   
    12    6    8 1   
    13   11   12 1   
    14   11   15 1   
    15   12   13 2   
    16   13   14 1   
@<TRIPOS>SUBSTRUCTURE
     1 K6X         1 TEMP              0 ****  ****    0 ROOT
