@<TRIPOS>MOLECULE
K70
   41    44     1     0     0
SMALL
bcc


@<TRIPOS>ATOM
      1 C02          0.0000     0.0000     0.0000 c          1 K70       0.583700
      2 C05          1.4780     0.0000     0.0000 ca         1 K70      -0.120600
      3 C06          2.1790     0.0000     1.2070 ca         1 K70      -0.055000
      4 C07          3.5580     0.0000     1.2000 ca         1 K70      -0.100000
      5 C08          4.2470     0.0010     0.0010 ca         1 K70      -0.131300
      6 C09          5.7540     0.0010     0.0010 c3         1 K70      -0.042400
      7 C11          6.5330    -1.8650     1.2020 ca         1 K70      -0.034000
      8 C12          6.3500    -1.0290     2.3320 ca         1 K70      -0.167000
      9 C13          6.6340    -1.4940     3.5820 ca         1 K70       0.008000
     10 C14          7.1040    -2.7860     3.7740 ca         1 K70      -0.090000
     11 C15          7.2900    -3.6230     2.6800 ca         1 K70      -0.018000
     12 C16          7.0120    -3.1730     1.4330 ca         1 K70      -0.409000
     13 C18          6.7800    -3.2710    -1.3400 ca         1 K70      -0.001800
     14 C19          6.8710    -3.8700    -2.5600 ca         1 K70       0.033000
     15 C20          6.5020    -3.1200    -3.6790 ca         1 K70      -0.233300
     16 C21          6.0640    -1.8150    -3.4990 ca         1 K70       0.504200
     17 C23          6.3210    -1.9390    -1.2010 ca         1 K70       0.387800
     18 C24          3.5590     0.0000    -1.1990 ca         1 K70      -0.100000
     19 C25          2.1790    -0.0050    -1.2060 ca         1 K70      -0.055000
     20 N03         -0.6740    -0.0050    -1.1670 ns         1 K70      -0.049400
     21 N10          6.2430    -1.3800     0.0000 nh         1 K70       0.273800
     22 N22          5.9860    -1.2640    -2.3090 nb         1 K70      -0.609000
     23 O01         -0.6080    -0.0010     1.0520 o          1 K70      -0.603100
     24 O04         -2.0900    -0.0110    -1.1680 oh         1 K70      -0.428100
     25 S17          7.2110    -4.0890     0.1730 sx         1 K70      -0.006500
     26 H1           1.6410    -0.0000     2.1480 ha         1 K70       0.124000
     27 H2           4.1030     0.0010     2.1370 ha         1 K70       0.118500
     28 H3           6.1160     0.5120    -0.8830 h1         1 K70       0.069700
     29 H4           6.1150     0.5110     0.8860 h1         1 K70       0.069700
     30 H6           6.4900    -0.8460     4.4380 ha         1 K70       0.126000
     31 H7           7.3240    -3.1410     4.7740 ha         1 K70       0.134000
     32 H8           7.6570    -4.6320     2.8240 ha         1 K70       0.124000
     33 H9           7.2180    -4.8920    -2.6600 ha         1 K70       0.127000
     34 H10          6.5570    -3.5500    -4.6720 ha         1 K70       0.144000
     35 H11          5.7780    -1.2330    -4.3670 h4         1 K70       0.001100
     36 H12          4.1040    -0.0020    -2.1350 ha         1 K70       0.118500
     37 H13          1.6420    -0.0050    -2.1470 ha         1 K70       0.124000
     38 H14         -0.1740    -0.0050    -2.0340 hn         1 K70       0.156500
     39 H15         -2.4040    -0.0030    -2.0570 ho         1 K70       0.398000
     40 H16          8.1500    -5.0270     0.1760 hs         1 K70       0.463000
     41 H5           5.9840    -0.0170     2.2030 ha         1 K70       0.163000
@<TRIPOS>BOND
     1     1     2 1   
     2     1    20 1   
     3     1    23 2   
     4     2     3 ar  
     5     2    19 ar  
     6     3     4 ar  
     7     3    26 1   
     8     4     5 ar  
     9     4    27 1   
    10     5     6 1   
    11     5    18 ar  
    12     6    21 1   
    13     6    28 1   
    14     6    29 1   
    15     7     8 ar  
    16     7    12 ar  
    17     7    21 2   
    18     8     9 ar  
    19     8    41 1   
    20     9    10 ar  
    21     9    30 1   
    22    10    11 ar  
    23    10    31 1   
    24    11    12 ar  
    25    11    32 1   
    26    12    25 2   
    27    13    14 ar  
    28    13    17 ar  
    29    13    25 1   
    30    14    15 ar  
    31    14    33 1   
    32    15    16 ar  
    33    15    34 1   
    34    16    22 ar  
    35    16    35 1   
    36    17    21 1   
    37    17    22 ar  
    38    18    19 ar  
    39    18    36 1   
    40    19    37 1   
    41    20    24 1   
    42    20    38 1   
    43    24    39 1   
    44    25    40 1   
@<TRIPOS>SUBSTRUCTURE
     1 K70         1 TEMP              0 ****  ****    0 ROOT
