@<TRIPOS>MOLECULE
molecule
   41    44     1     0     0
SMALL
bcc


@<TRIPOS>ATOM
      1 C02          0.0000     0.0000     0.0000 c          1 K70       0.679700
      2 C05          1.4780     0.0000     0.0000 ca         1 K70      -0.104600
      3 C06          2.1790     0.0000     1.2070 ca         1 K70      -0.086500
      4 C07          3.5580     0.0000     1.2000 ca         1 K70      -0.114000
      5 C08          4.2470     0.0010     0.0010 ca         1 K70      -0.124300
      6 C09          5.7540     0.0010     0.0010 c3         1 K70       0.048600
      7 C11          6.5330    -1.8650     1.2020 ca         1 K70       0.106800
      8 C12          6.3500    -1.0290     2.3320 ca         1 K70      -0.193000
      9 C13          6.6340    -1.4940     3.5820 ca         1 K70      -0.014000
     10 C14          7.1040    -2.7860     3.7740 ca         1 K70      -0.121000
     11 C15          7.2900    -3.6230     2.6800 ca         1 K70      -0.042000
     12 C16          7.0120    -3.1730     1.4330 ca         1 K70      -0.114500
     13 C18          6.7800    -3.2710    -1.3400 ca         1 K70      -0.549300
     14 C19          6.8710    -3.8700    -2.5600 ca         1 K70       0.002000
     15 C20          6.5020    -3.1200    -3.6790 ca         1 K70      -0.256300
     16 C21          6.0640    -1.8150    -3.4990 ca         1 K70       0.515200
     17 C23          6.3210    -1.9390    -1.2010 ca         1 K70       0.512300
     18 C24          3.5590     0.0000    -1.1990 ca         1 K70      -0.114000
     19 C25          2.1790    -0.0050    -1.2060 ca         1 K70      -0.086500
     20 N03         -0.6740    -0.0050    -1.1670 ns         1 K70      -0.466400
     21 N10          6.2430    -1.3800     0.0000 nh         1 K70      -0.047500
     22 N22          5.9860    -1.2640    -2.3090 nb         1 K70      -0.723000
     23 O01         -0.6080    -0.0010     1.0520 o          1 K70      -0.555100
     24 O04         -2.0900    -0.0110    -1.1680 oh         1 K70      -0.348100
     25 S17          7.2110    -4.0890     0.1730 sx         1 K70       0.343500
     26 H1           1.6410    -0.0000     2.1480 ha         1 K70       0.155000
     27 H2           4.1030     0.0010     2.1370 ha         1 K70       0.142500
     28 H3           6.1160     0.5120    -0.8830 h1         1 K70       0.099200
     29 H4           6.1150     0.5110     0.8860 h1         1 K70       0.099200
     30 H6           6.4900    -0.8460     4.4380 ha         1 K70       0.169000
     31 H7           7.3240    -3.1410     4.7740 ha         1 K70       0.172000
     32 H8           7.6570    -4.6320     2.8240 ha         1 K70       0.164000
     33 H9           7.2180    -4.8920    -2.6600 ha         1 K70       0.168000
     34 H10          6.5570    -3.5500    -4.6720 ha         1 K70       0.177000
     35 H11          5.7780    -1.2330    -4.3670 h4         1 K70       0.057100
     36 H12          4.1040    -0.0020    -2.1350 ha         1 K70       0.142500
     37 H13          1.6420    -0.0050    -2.1470 ha         1 K70       0.155000
     38 H14         -0.1740    -0.0050    -2.0340 hn         1 K70       0.319500
     39 H15         -2.4040    -0.0030    -2.0570 ho         1 K70       0.406000
     40 H16          8.1500    -5.0270     0.1760 hs         1 K70       0.251000
     41 H5           5.9840    -0.0170     2.2030 ha         1 K70       0.177000
@<TRIPOS>BOND
     1    16    15 ar
     2    16    22 ar
     3    15    14 ar
     4    22    17 ar
     5    14    13 ar
     6    17    13 ar
     7    17    21 2
     8     6    21 1
     9     6     5 1
    10    13    25 2
    11    21     7 1
    12    18     5 ar
    13    18    19 ar
    14     5     4 ar
    15     7     8 ar
    16     7    12 ar
    17    25    12 1
    18    19     2 ar
    19     4     3 ar
    20     8     9 ar
    21    12    11 ar
    22     2     3 ar
    23     2     1 1
    24     9    10 ar
    25    11    10 ar
    26     1    23 2
    27     1    20 1
    28    20    24 1
    29     3    26 1
    30     4    27 1
    31     6    28 1
    32     6    29 1
    33     8    41 1
    34     9    30 1
    35    10    31 1
    36    11    32 1
    37    14    33 1
    38    15    34 1
    39    16    35 1
    40    18    36 1
    41    19    37 1
    42    20    38 1
    43    24    39 1
    44    25    40 1
@<TRIPOS>SUBSTRUCTURE
     1 K70         1 TEMP              0 ****  ****    0 ROOT
