@<TRIPOS>MOLECULE
K74
   29    30     1     0     0
SMALL
bcc


@<TRIPOS>ATOM
      1 C1           0.0000     0.0000     0.0000 ca         1 K74       0.099100
      2 C2           1.3980     0.0000     0.0000 ca         1 K74       0.102400
      3 C3           2.0890     0.0000     1.2230 ca         1 K74      -0.240200
      4 C4           1.3850    -0.0020     2.4180 ca         1 K74       0.070100
      5 C5           0.0030    -0.0030     2.4020 ca         1 K74       0.053100
      6 C6          -0.6850    -0.0020     1.1960 ca         1 K74       0.035100
      7 N13          2.3310     0.0030    -0.9880 nc         1 K74      -0.539100
      8 C15          3.5310     0.0030    -0.4600 cd         1 K74       0.273700
      9 N17          3.4380     0.0020     0.9030 na         1 K74       0.363700
     10 S20          5.0380     0.0040    -1.3720 ss         1 K74      -0.214300
     11 C22          4.3850     0.0060    -3.0600 c3         1 K74       0.017700
     12 C24          5.5280     0.0080    -4.0420 c          1 K74       0.583100
     13 N26          5.2780     0.0090    -5.3670 ns         1 K74      -0.188900
     14 O28          6.6720     0.0070    -3.6400 o          1 K74      -0.626100
     15 C30          6.3900     0.0100    -6.3210 c3         1 K74       0.087300
     16 Br32        -0.9480     0.0090    -1.6370 br         1 K74      -0.075100
     17 Br34        -2.5760    -0.0030     1.1950 br         1 K74      -0.066100
     18 Br36        -0.9560    -0.0050     4.0310 br         1 K74      -0.064100
     19 Br38         2.3130    -0.0040     4.0650 br         1 K74      -0.096100
     20 C40          4.5560     0.0010     1.8500 c3         1 K74      -0.028400
     21 H22          3.7780     0.8900    -3.2110 h1         1 K74       0.065200
     22 H22A         3.7780    -0.8790    -3.2130 h1         1 K74       0.065200
     23 HN26         4.3340     0.0300    -5.6980 hn         1 K74       0.172500
     24 H30          5.9990     0.0090    -7.3310 h1         1 K74       0.012033
     25 H30A         6.9950     0.8960    -6.1690 h1         1 K74       0.012033
     26 H30B         6.9980    -0.8730    -6.1680 h1         1 K74       0.012033
     27 H40          5.4920     0.0030     1.3040 h1         1 K74       0.038033
     28 H40A         4.5000     0.8840     2.4750 h1         1 K74       0.038033
     29 H40B         4.5020    -0.8850     2.4710 h1         1 K74       0.038033
@<TRIPOS>BOND
     1     1     2 ar  
     2     1     6 ar  
     3     1    16 1   
     4     2     3 ar  
     5     2     7 1   
     6     3     4 ar  
     7     3     9 1   
     8     4     5 ar  
     9     4    19 1   
    10     5     6 ar  
    11     5    18 1   
    12     6    17 1   
    13     7     8 2   
    14     8     9 1   
    15     8    10 1   
    16     9    20 1   
    17    10    11 1   
    18    11    12 1   
    19    11    21 1   
    20    11    22 1   
    21    12    13 1   
    22    12    14 2   
    23    13    15 1   
    24    13    23 1   
    25    15    24 1   
    26    15    25 1   
    27    15    26 1   
    28    20    27 1   
    29    20    28 1   
    30    20    29 1   
@<TRIPOS>SUBSTRUCTURE
     1 K74         1 TEMP              0 ****  ****    0 ROOT
