@<TRIPOS>MOLECULE
molecule
   39    41     1     0     0
SMALL
bcc


@<TRIPOS>ATOM
      1 F3           0.0000     0.0000     0.0000 f          1 K76      -0.218633
      2 C13          1.3990     0.0000     0.0000 c3         1 K76       0.678700
      3 F5           1.8650     0.0000     1.3190 f          1 K76      -0.218633
      4 F4           1.8650    -1.1420    -0.6590 f          1 K76      -0.218633
      5 C10          1.9010     1.2310    -0.7100 ca         1 K76      -0.193300
      6 C9           3.2610     1.4470    -0.8400 ca         1 K76      -0.022000
      7 C8           3.7290     2.5740    -1.4900 ca         1 K76      -0.193300
      8 C12          5.2120     2.8010    -1.6290 c3         1 K76       0.678700
      9 F8           5.4730     4.1750    -1.6600 f          1 K76      -0.218633
     10 F6           5.8760     2.2250    -0.5410 f          1 K76      -0.218633
     11 F7           5.6660     2.2140    -2.8150 f          1 K76      -0.218633
     12 C7           2.8400     3.4910    -2.0130 ca         1 K76      -0.024000
     13 C11          1.0030     2.1390    -1.2330 ca         1 K76      -0.024000
     14 C6           1.4690     3.2790    -1.8850 ca         1 K76      -0.120500
     15 C5           0.5080     4.2610    -2.4440 cc         1 K76       0.638500
     16 N2           0.8340     5.3890    -3.0940 nc         1 K76      -0.745000
     17 C4          -0.2510     6.0220    -3.4520 cd         1 K76       0.475400
     18 N3          -0.8020     4.1670    -2.3890 nd         1 K76      -0.535800
     19 N1          -1.3170     5.3030    -3.0340 na         1 K76      -0.010600
     20 C3          -2.6500     5.6220    -3.2110 c2         1 K76       0.015900
     21 C2          -3.6040     4.8040    -2.7370 ce         1 K76      -0.251200
     22 C1          -5.0160     5.1420    -2.9240 c          1 K76       0.717300
     23 O           -5.3250     6.1630    -3.5090 o          1 K76      -0.604100
     24 N1'         -5.9730     4.3210    -2.4470 nj         1 K76      -0.513800
     25 C1'         -7.4440     4.3070    -2.4330 cy         1 K76       0.066000
     26 C3'         -6.0080     3.0430    -1.7210 cy         1 K76       0.066000
     27 C2'         -7.3690     3.4710    -1.1470 cy         1 K76       0.352600
     28 F2          -8.3130     2.4400    -1.0800 f          1 K76      -0.207300
     29 F1          -7.2840     4.2260     0.0280 f          1 K76      -0.207300
     30 H1           3.9620     0.7290    -0.4320 ha         1 K76       0.163000
     31 H2           3.2080     4.3740    -2.5200 ha         1 K76       0.174000
     32 H3          -0.0620     1.9690    -1.1310 ha         1 K76       0.174000
     33 H4          -0.2900     6.9620    -3.9900 h5         1 K76       0.083100
     34 H5          -2.9250     6.5310    -3.7320 h4         1 K76       0.190000
     35 H7          -3.3290     3.8950    -2.2160 ha         1 K76       0.160000
     36 H9          -7.8690     3.7610    -3.2670 h1         1 K76       0.083450
     37 H10         -7.8740     5.2880    -2.2730 h1         1 K76       0.083450
     38 H11         -5.2360     2.9670    -0.9650 h1         1 K76       0.083450
     39 H12         -6.0780     2.1860    -2.3790 h1         1 K76       0.083450
@<TRIPOS>BOND
     1     9     8 1
     2     8    11 1
     3     8     7 1
     4     8    10 1
     5     4     2 1
     6     1     2 1
     7     6     7 ar
     8     6     5 ar
     9     7    12 ar
    10    29    27 1
    11     2     5 1
    12     2     3 1
    13     5    13 ar
    14    12    14 ar
    15    13    14 ar
    16    14    15 1
    17    27    26 1
    18    27    25 1
    19    27    28 1
    20    26    24 1
    21    23    22 2
    22    24    22 1
    23    24    25 1
    24    22    21 1
    25    21    20 2
    26    15    16 1
    27    15    18 2
    28    16    17 2
    29    18    19 1
    30    17    19 1
    31    19    20 1
    32     6    30 1
    33    12    31 1
    34    13    32 1
    35    17    33 1
    36    20    34 1
    37    21    35 1
    38    25    36 1
    39    25    37 1
    40    26    38 1
    41    26    39 1
@<TRIPOS>SUBSTRUCTURE
     1 K76         1 TEMP              0 ****  ****    0 ROOT
