@<TRIPOS>MOLECULE
K76
   39    43     1     0     0
SMALL
bcc


@<TRIPOS>ATOM
      1 F3           0.0000     0.0000     0.0000 f          1 K76      -0.132333
      2 C13          1.3990     0.0000     0.0000 c3         1 K76       0.423500
      3 F5           1.8650     0.0000     1.3190 f          1 K76      -0.132333
      4 F4           1.8650    -1.1420    -0.6590 f          1 K76      -0.132333
      5 C10          1.9010     1.2310    -0.7100 ca         1 K76      -0.219000
      6 C9           3.2610     1.4470    -0.8400 ca         1 K76       0.035000
      7 C8           3.7290     2.5740    -1.4900 ca         1 K76      -0.219000
      8 C12          5.2120     2.8010    -1.6290 c3         1 K76       0.423500
      9 F8           5.4730     4.1750    -1.6600 f          1 K76      -0.132333
     10 F6           5.8760     2.2250    -0.5410 f          1 K76      -0.132333
     11 F7           5.6660     2.2140    -2.8150 f          1 K76      -0.132333
     12 C7           2.8400     3.4910    -2.0130 ca         1 K76       0.024000
     13 C11          1.0030     2.1390    -1.2330 ca         1 K76       0.024000
     14 C6           1.4690     3.2790    -1.8850 ca         1 K76      -0.042000
     15 C5           0.5080     4.2610    -2.4440 c2         1 K76       0.023000
     16 N2           0.8340     5.3890    -3.0940 n2         1 K76      -0.126000
     17 C4          -0.2510     6.0220    -3.4520 c2         1 K76      -0.142000
     18 N3          -0.8020     4.1670    -2.3890 n2         1 K76      -0.241000
     19 N1          -1.3170     5.3030    -3.0340 nx         1 K76       0.266000
     20 C3          -2.6500     5.6220    -3.2110 c2         1 K76      -0.119000
     21 C2          -3.6040     4.8040    -2.7370 c2         1 K76      -0.331000
     22 C1          -5.0160     5.1420    -2.9240 c3         1 K76       0.297000
     23 O           -5.3250     6.1630    -3.5090 o          1 K76      -0.400000
     24 N1'         -5.9730     4.3210    -2.4470 nq         1 K76      -0.044000
     25 C1'         -7.4440     4.3070    -2.4330 cy         1 K76      -0.091000
     26 C3'         -6.0080     3.0430    -1.7210 cy         1 K76      -0.091000
     27 C2'         -7.3690     3.4710    -1.1470 cy         1 K76       0.188000
     28 F2          -8.3130     2.4400    -1.0800 f          1 K76      -0.121000
     29 F1          -7.2840     4.2260     0.0280 f          1 K76      -0.121000
     30 H1           3.9620     0.7290    -0.4320 ha         1 K76       0.130000
     31 H2           3.2080     4.3740    -2.5200 ha         1 K76       0.142000
     32 H3          -0.0620     1.9690    -1.1310 ha         1 K76       0.142000
     33 H4          -0.2900     6.9620    -3.9900 hx         1 K76       0.184000
     34 H5          -2.1040     5.7630    -2.2860 DU         1 K76       0.233000
     35 H7          -4.1490     4.6640    -3.6620 DU         1 K76       0.201000
     36 H9          -7.8690     3.7610    -3.2670 h1         1 K76       0.091750
     37 H10         -7.8740     5.2880    -2.2730 h1         1 K76       0.091750
     38 H11         -6.0780     2.1860    -2.3790 h1         1 K76       0.091750
     39 H12         -5.2360     2.9670    -0.9650 h1         1 K76       0.091750
@<TRIPOS>BOND
     1     1     2 1   
     2     2     3 1   
     3     2     4 1   
     4     2     5 1   
     5     5     6 1   
     6     5    13 1   
     7     6     7 1   
     8     6    30 1   
     9     7     8 1   
    10     7    12 1   
    11     8     9 1   
    12     8    10 1   
    13     8    11 1   
    14    12    14 1   
    15    12    31 1   
    16    13    14 1   
    17    13    32 1   
    18    14    15 1   
    19    15    16 1   
    20    15    18 1   
    21    16    17 1   
    22    17    19 1   
    23    17    33 1   
    24    18    19 1   
    25    19    20 1   
    26    19    34 1   
    27    20    21 1   
    28    20    34 1   
    29    21    22 1   
    30    21    35 1   
    31    22    23 1   
    32    22    24 1   
    33    22    35 1   
    34    24    25 1   
    35    24    26 1   
    36    25    27 1   
    37    25    36 1   
    38    25    37 1   
    39    26    27 1   
    40    26    38 1   
    41    26    39 1   
    42    27    28 1   
    43    27    29 1   
@<TRIPOS>SUBSTRUCTURE
     1 K76         1 TEMP              0 ****  ****    0 ROOT
