@<TRIPOS>MOLECULE
K78
   49    50     1     0     0
SMALL
bcc


@<TRIPOS>ATOM
      1 C1           0.0000     0.0000     0.0000 c3         1 K78       0.003900
      2 C2           1.5300     0.0000     0.0000 c3         1 K78      -0.008700
      3 C3           2.0400     0.0000     1.4420 c3         1 K78       0.003900
      4 C4           2.0390    -1.2490    -0.7210 c3         1 K78       0.003900
      5 C5           2.0330     1.2300    -0.7100 ca         1 K78      -0.101300
      6 C6           1.6980     2.4860    -0.2370 ca         1 K78      -0.063000
      7 C7           2.1580     3.6150    -0.8850 ca         1 K78      -0.126300
      8 C8           2.9560     3.4900    -2.0130 ca         1 K78       0.180100
      9 C9           3.2900     2.2290    -2.4870 ca         1 K78      -0.040900
     10 C10          2.8320     1.1020    -1.8310 ca         1 K78      -0.066000
     11 Br           4.3770     2.0530    -4.0250 br         1 K78      -0.120100
     12 O12          3.4090     4.6010    -2.6540 oh         1 K78      -0.467100
     13 C13          1.7920     4.9830    -0.3690 c3         1 K78       0.216100
     14 N14          2.9520     5.5780     0.3070 n7         1 K78      -0.572200
     15 C15          2.6330     6.9150     0.8240 c3         1 K78       0.141800
     16 C16          3.8640     7.5010     1.5190 c3         1 K78      -0.027400
     17 C17          3.5300     8.8930     2.0590 c3         1 K78       0.031900
     18 C18          4.7420     9.4710     2.7430 ca         1 K78      -0.089300
     19 C19          5.6520    10.2200     2.0220 ca         1 K78      -0.097500
     20 C20          6.7630    10.7490     2.6500 ca         1 K78      -0.098500
     21 C21          6.9660    10.5290     3.9990 ca         1 K78      -0.105000
     22 C22          6.0560     9.7800     4.7210 ca         1 K78      -0.098500
     23 C23          4.9410     9.2540     4.0940 ca         1 K78      -0.097500
     24 H11C        -0.3610     0.2140    -0.9990 hc         1 K78       0.008144
     25 H12C        -0.3610    -0.9720     0.3140 hc         1 K78       0.008144
     26 H13C        -0.3610     0.7580     0.6850 hc         1 K78       0.008144
     27 H31C         3.1050     0.2020     1.4490 hc         1 K78       0.008144
     28 H32C         1.5240     0.7660     2.0080 hc         1 K78       0.008144
     29 H33C         1.8530    -0.9680     1.8920 hc         1 K78       0.008144
     30 H41C         1.6770    -2.1340    -0.2110 hc         1 K78       0.008144
     31 H42C         3.1230    -1.2510    -0.7200 hc         1 K78       0.008144
     32 H43C         1.6790    -1.2490    -1.7430 hc         1 K78       0.008144
     33 H6           1.0750     2.5840     0.6440 ha         1 K78       0.113000
     34 H10          3.0930     0.1170    -2.2000 ha         1 K78       0.132000
     35 H131         1.4950     5.6140    -1.1980 h1         1 K78       0.009700
     36 H132         0.9710     4.8970     0.3320 h1         1 K78       0.009700
     37 H12          3.2160     4.5330    -3.5750 ho         1 K78       0.403000
     38 H14          3.2370     4.9870     1.0620 hn         1 K78       0.252800
     39 H151         2.3410     7.5590     0.0040 h1         1 K78       0.004700
     40 H152         1.8180     6.8420     1.5340 h1         1 K78       0.004700
     41 H161         4.1570     6.8560     2.3390 hc         1 K78       0.024200
     42 H162         4.6790     7.5750     0.8090 hc         1 K78       0.024200
     43 H171         3.2370     9.5380     1.2390 hc         1 K78       0.017200
     44 H172         2.7150     8.8190     2.7690 hc         1 K78       0.017200
     45 H19          5.4930    10.3930     0.9640 ha         1 K78       0.105000
     46 H23          4.2280     8.6670     4.6600 ha         1 K78       0.105000
     47 H20          7.4760    11.3370     2.0840 ha         1 K78       0.101500
     48 H21          7.8380    10.9430     4.4900 ha         1 K78       0.101000
     49 H22          6.2130     9.6090     5.7790 ha         1 K78       0.101500
@<TRIPOS>BOND
     1     1     2 1   
     2     1    24 1   
     3     1    25 1   
     4     1    26 1   
     5     2     3 1   
     6     2     4 1   
     7     2     5 1   
     8     3    27 1   
     9     3    28 1   
    10     3    29 1   
    11     4    30 1   
    12     4    31 1   
    13     4    32 1   
    14     5     6 ar  
    15     5    10 ar  
    16     6     7 ar  
    17     6    33 1   
    18     7     8 ar  
    19     7    13 1   
    20     8     9 ar  
    21     8    12 1   
    22     9    10 ar  
    23     9    11 1   
    24    10    34 1   
    25    12    37 1   
    26    13    14 1   
    27    13    35 1   
    28    13    36 1   
    29    14    15 1   
    30    14    38 1   
    31    15    16 1   
    32    15    39 1   
    33    15    40 1   
    34    16    17 1   
    35    16    41 1   
    36    16    42 1   
    37    17    18 1   
    38    17    43 1   
    39    17    44 1   
    40    18    19 ar  
    41    18    23 ar  
    42    19    20 ar  
    43    19    45 1   
    44    20    21 ar  
    45    20    47 1   
    46    21    22 ar  
    47    21    48 1   
    48    22    23 ar  
    49    22    49 1   
    50    23    46 1   
@<TRIPOS>SUBSTRUCTURE
     1 K78         1 TEMP              0 ****  ****    0 ROOT
