@<TRIPOS>MOLECULE
K7I
   48    48     1     0     0
SMALL
bcc


@<TRIPOS>ATOM
      1 CAK          0.0000     0.0000     0.0000 ca         1 K7I      -0.100500
      2 CAI          1.3820     0.0000     0.0000 ca         1 K7I      -0.093500
      3 CAH          2.0740     0.0000     1.1970 ca         1 K7I      -0.097000
      4 CAJ          1.3830     0.0020     2.3940 ca         1 K7I      -0.093500
      5 CAL          0.0010     0.0030     2.3940 ca         1 K7I      -0.100500
      6 CAR         -0.6900     0.0010     1.1970 ca         1 K7I      -0.105300
      7 CAM         -2.1970     0.0010     1.1980 c3         1 K7I       0.020900
      8 CAV         -2.7090    -1.4400     1.1990 c3         1 K7I       0.005700
      9 OAG         -4.6100    -0.8020     2.5450 oh         1 K7I      -0.577800
     10 NAO         -2.3220    -2.0960    -0.0530 ns         1 K7I      -0.145900
     11 CAQ         -2.1950    -3.4380    -0.1000 c          1 K7I       0.563100
     12 OAF         -2.4010    -4.1010     0.8940 o          1 K7I      -0.658100
     13 CAU         -1.7970    -4.1120    -1.3870 c3         1 K7I      -0.075300
     14 CAC         -2.8330    -3.8010    -2.4690 c3         1 K7I      -0.007100
     15 NAN         -1.7290    -5.5610    -1.1790 ns         1 K7I      -0.079900
     16 C           -0.9440    -6.3190    -1.9690 c          1 K7I       0.546100
     17 O           -0.2920    -5.8030    -2.8520 o          1 K7I      -0.660100
     18 CA          -0.8740    -7.8090    -1.7540 c3         1 K7I      -0.157500
     19 CB          -0.3660    -8.0980    -0.3410 c3         1 K7I      -0.000100
     20 N            0.0440    -8.4030    -2.7360 nz         1 K7I       0.101400
     21 CAT         -4.2330    -1.4420     1.3250 c3         1 K7I       0.181100
     22 CAB         -4.7440    -2.8840     1.3250 c3         1 K7I      -0.054100
     23 HAK         -0.5420    -0.0010    -0.9380 ha         1 K7I       0.104500
     24 HAI          1.9240    -0.0010    -0.9380 ha         1 K7I       0.106500
     25 HAH          3.1570    -0.0000     1.1970 ha         1 K7I       0.107000
     26 HAJ          1.9250     0.0030     3.3320 ha         1 K7I       0.106500
     27 HAL         -0.5410     0.0050     3.3320 ha         1 K7I       0.104500
     28 HAM         -2.5590     0.5110     0.3130 hc         1 K7I       0.038700
     29 HAMA        -2.5580     0.5130     2.0820 hc         1 K7I       0.038700
     30 HAV         -2.2770    -1.9760     2.0360 h1         1 K7I       0.076700
     31 HOAG        -5.4920    -0.4770     2.4700 ho         1 K7I       0.400000
     32 HNAO        -2.1510    -1.5480    -0.8730 hn         1 K7I       0.183500
     33 HAU         -0.8270    -3.7470    -1.7020 h1         1 K7I       0.076700
     34 HAC         -3.2730    -4.7250    -2.8240 hc         1 K7I       0.022033
     35 HACA        -2.3530    -3.2890    -3.2930 hc         1 K7I       0.022033
     36 HACB        -3.6090    -3.1690    -2.0540 hc         1 K7I       0.022033
     37 HNAN        -2.2410    -5.9820    -0.4290 hn         1 K7I       0.205500
     38 HA          -1.8610    -8.2380    -1.8770 hx         1 K7I       0.096700
     39 HB           0.4490    -7.4240    -0.1050 hc         1 K7I       0.043367
     40 HBA         -1.1710    -7.9530     0.3690 hc         1 K7I       0.043367
     41 HBB         -0.0150    -9.1220    -0.2850 hc         1 K7I       0.043367
     42 HN           0.9610    -8.0240    -2.6080 hn         1 K7I       0.228800
     43 HNA          0.0730    -9.3950    -2.6090 hn         1 K7I       0.228800
     44 HAT         -4.6650    -0.9060     0.4880 h1         1 K7I      -0.003300
     45 HAB         -4.7060    -3.2810     0.3180 hc         1 K7I       0.020700
     46 HABA        -4.1200    -3.4870     1.9740 hc         1 K7I       0.020700
     47 HABB        -5.7660    -2.9050     1.6840 hc         1 K7I       0.020700
     48 HN3         -0.2900    -8.2150    -3.6610 hn         1 K7I       0.228800
@<TRIPOS>BOND
     1     1     2 ar  
     2     1     6 ar  
     3     1    23 1   
     4     2     3 ar  
     5     2    24 1   
     6     3     4 ar  
     7     3    25 1   
     8     4     5 ar  
     9     4    26 1   
    10     5     6 ar  
    11     5    27 1   
    12     6     7 1   
    13     7     8 1   
    14     7    28 1   
    15     7    29 1   
    16     8    10 1   
    17     8    21 1   
    18     8    30 1   
    19     9    21 1   
    20     9    31 1   
    21    10    11 1   
    22    10    32 1   
    23    11    12 2   
    24    11    13 1   
    25    13    14 1   
    26    13    15 1   
    27    13    33 1   
    28    14    34 1   
    29    14    35 1   
    30    14    36 1   
    31    15    16 1   
    32    15    37 1   
    33    16    17 2   
    34    16    18 1   
    35    18    19 1   
    36    18    20 1   
    37    18    38 1   
    38    19    39 1   
    39    19    40 1   
    40    19    41 1   
    41    20    42 1   
    42    20    43 1   
    43    20    48 1   
    44    21    22 1   
    45    21    44 1   
    46    22    45 1   
    47    22    46 1   
    48    22    47 1   
@<TRIPOS>SUBSTRUCTURE
     1 K7I         1 TEMP              0 ****  ****    0 ROOT
