@<TRIPOS>MOLECULE
molecule
   48    48     1     0     0
SMALL
bcc


@<TRIPOS>ATOM
      1 CAK          0.0000     0.0000     0.0000 ca         1 K7I      -0.126000
      2 CAI          1.3820     0.0000     0.0000 ca         1 K7I      -0.123000
      3 CAH          2.0740     0.0000     1.1970 ca         1 K7I      -0.125000
      4 CAJ          1.3830     0.0020     2.3940 ca         1 K7I      -0.123000
      5 CAL          0.0010     0.0030     2.3940 ca         1 K7I      -0.126000
      6 CAR         -0.6900     0.0010     1.1970 ca         1 K7I      -0.091300
      7 CAM         -2.1970     0.0010     1.1980 c3         1 K7I      -0.046100
      8 CAV         -2.7090    -1.4400     1.1990 c3         1 K7I       0.122700
      9 OAG         -4.6100    -0.8020     2.5450 oh         1 K7I      -0.600800
     10 NAO         -2.3220    -2.0960    -0.0530 ns         1 K7I      -0.557900
     11 CAQ         -2.1950    -3.4380    -0.1000 c          1 K7I       0.654100
     12 OAF         -2.4010    -4.1010     0.8940 o          1 K7I      -0.614100
     13 CAU         -1.7970    -4.1120    -1.3870 c3         1 K7I       0.032700
     14 CAC         -2.8330    -3.8010    -2.4690 c3         1 K7I      -0.109100
     15 NAN         -1.7290    -5.5610    -1.1790 ns         1 K7I      -0.522900
     16 C           -0.9440    -6.3190    -1.9690 c          1 K7I       0.642100
     17 O           -0.2920    -5.8030    -2.8520 o          1 K7I      -0.608100
     18 CA          -0.8740    -7.8090    -1.7540 c3         1 K7I       0.021500
     19 CB          -0.3660    -8.0980    -0.3410 c3         1 K7I      -0.119100
     20 N            0.0440    -8.4030    -2.7360 nz         1 K7I      -0.794600
     21 CAT         -4.2330    -1.4420     1.3250 c3         1 K7I       0.131100
     22 CAB         -4.7440    -2.8840     1.3250 c3         1 K7I      -0.122100
     23 HAK         -0.5420    -0.0010    -0.9380 ha         1 K7I       0.127500
     24 HAI          1.9240    -0.0010    -0.9380 ha         1 K7I       0.134000
     25 HAH          3.1570    -0.0000     1.1970 ha         1 K7I       0.135000
     26 HAJ          1.9250     0.0030     3.3320 ha         1 K7I       0.134000
     27 HAL         -0.5410     0.0050     3.3320 ha         1 K7I       0.127500
     28 HAM         -2.5590     0.5110     0.3130 hc         1 K7I       0.070200
     29 HAMA        -2.5580     0.5130     2.0820 hc         1 K7I       0.070200
     30 HAV         -2.2770    -1.9760     2.0360 h1         1 K7I       0.100700
     31 HOAG        -5.4920    -0.4770     2.4700 ho         1 K7I       0.413000
     32 HNAO        -2.1510    -1.5480    -0.8730 hn         1 K7I       0.323500
     33 HAU         -0.8270    -3.7470    -1.7020 h1         1 K7I       0.103700
     34 HAC         -3.2730    -4.7250    -2.8240 hc         1 K7I       0.058033
     35 HACA        -2.3530    -3.2890    -3.2930 hc         1 K7I       0.058033
     36 HACB        -3.6090    -3.1690    -2.0540 hc         1 K7I       0.058033
     37 HNAN        -2.2410    -5.9820    -0.4290 hn         1 K7I       0.350500
     38 HA          -1.8610    -8.2380    -1.8770 hx         1 K7I       0.126700
     39 HB           0.4490    -7.4240    -0.1050 hc         1 K7I       0.084033
     40 HBA         -1.1710    -7.9530     0.3690 hc         1 K7I       0.084033
     41 HBB         -0.0150    -9.1220    -0.2850 hc         1 K7I       0.084033
     42 HN           0.9610    -8.0240    -2.6080 hn         1 K7I       0.463800
     43 HNA          0.0730    -9.3950    -2.6090 hn         1 K7I       0.463800
     44 HAT         -4.6650    -0.9060     0.4880 h1         1 K7I       0.028700
     45 HAB         -4.7060    -3.2810     0.3180 hc         1 K7I       0.047033
     46 HABA        -4.1200    -3.4870     1.9740 hc         1 K7I       0.047033
     47 HABB        -5.7660    -2.9050     1.6840 hc         1 K7I       0.047033
     48 HN3         -0.2900    -8.2150    -3.6610 hn         1 K7I       0.463800
@<TRIPOS>BOND
     1     1     2 ar
     2     1     6 ar
     3     2     3 ar
     4     3     4 ar
     5     4     5 ar
     6     5     6 ar
     7     6     7 1
     8     7     8 1
     9     8    10 1
    10     8    21 1
    11     9    21 1
    12    10    11 1
    13    11    12 2
    14    11    13 1
    15    13    14 1
    16    13    15 1
    17    15    16 1
    18    16    17 2
    19    16    18 1
    20    18    19 1
    21    18    20 1
    22    21    22 1
    23     1    23 1
    24     2    24 1
    25     3    25 1
    26     4    26 1
    27     5    27 1
    28     7    28 1
    29     7    29 1
    30     8    30 1
    31     9    31 1
    32    10    32 1
    33    13    33 1
    34    14    34 1
    35    14    35 1
    36    14    36 1
    37    15    37 1
    38    18    38 1
    39    19    39 1
    40    19    40 1
    41    19    41 1
    42    20    42 1
    43    20    43 1
    44    21    44 1
    45    22    45 1
    46    22    46 1
    47    22    47 1
    48    48    20 1
@<TRIPOS>SUBSTRUCTURE
     1 K7I         1 TEMP              0 ****  ****    0 ROOT
