@<TRIPOS>MOLECULE
K7J
   71    72     1     0     0
SMALL
bcc


@<TRIPOS>ATOM
      1 CAF          0.0000     0.0000     0.0000 c          1 K7J       0.571100
      2 OAU          1.2130     0.0000     0.0000 o          1 K7J      -0.667100
      3 CAE         -0.7530     0.0000     1.3060 c3         1 K7J      -0.077400
      4 CAD          0.2410     0.0020     2.4690 c3         1 K7J      -0.121400
      5 CAB         -0.5120     0.0030     3.7740 c          1 K7J       0.979600
      6 OAA         -1.7200     0.0010     3.7740 o          1 K7J      -0.908300
      7 OAC          0.1600     0.0040     4.9360 o          1 K7J      -0.908300
      8 N           -0.6740     0.0040    -1.1660 ns         1 K7J      -0.210900
      9 CA           0.0570     0.0020    -2.4360 c3         1 K7J      -0.046300
     10 C           -0.8050     0.6070    -3.5140 c          1 K7J       0.570100
     11 O           -1.9210     1.0000    -3.2480 o          1 K7J      -0.662100
     12 CB           0.4160    -1.4350    -2.8160 c3         1 K7J      -0.014100
     13 NAJ         -0.3360     0.7120    -4.7720 ns         1 K7J      -0.176900
     14 CAK         -1.1740     1.3000    -5.8200 c3         1 K7J      -0.048300
     15 CAL         -0.7400     0.7750    -7.1640 c          1 K7J       0.609100
     16 OAY          0.1790    -0.0130    -7.2400 o          1 K7J      -0.632100
     17 CAX         -1.0280     2.8220    -5.7960 c3         1 K7J      -0.022100
     18 NAM         -1.3730     1.1810    -8.2830 n          1 K7J      -0.135800
     19 CAN         -1.0590     0.7460    -9.6510 c3         1 K7J      -0.036300
     20 CAO          0.3500     1.1480   -10.0060 c          1 K7J       0.566100
     21 OBC          1.0320     1.7420    -9.1980 o          1 K7J      -0.623100
     22 CBB         -2.0600     1.4430   -10.5950 c3         1 K7J      -0.033400
     23 CBA         -3.2430     1.7900    -9.6520 c3         1 K7J      -0.030400
     24 CAZ         -2.5010     2.1280    -8.3360 c3         1 K7J       0.037000
     25 CAR          2.2240     2.6810   -12.0810 c3         1 K7J       0.162100
     26 OAE          3.5590     3.0620   -12.4170 oh         1 K7J      -0.573800
     27 CAQ          2.2200     1.2400   -11.5650 c3         1 K7J       0.009700
     28 NAP          0.8510     0.8490   -11.2200 ns         1 K7J      -0.194900
     29 CBD          2.7590     0.3070   -12.6520 c3         1 K7J       0.021900
     30 CBG          2.8710    -1.0910   -12.1030 ca         1 K7J      -0.098300
     31 CBF          1.8020    -1.9630   -12.2090 ca         1 K7J      -0.097000
     32 CBH          4.0430    -1.5050   -11.4990 ca         1 K7J      -0.097000
     33 CBI          1.9050    -3.2460   -11.7070 ca         1 K7J      -0.093000
     34 CBK          4.1450    -2.7890   -10.9950 ca         1 K7J      -0.093000
     35 CBJ          3.0750    -3.6590   -11.0970 ca         1 K7J      -0.096000
     36 HAE         -1.3770     0.8840     1.3630 hc         1 K7J       0.036200
     37 HAEA        -1.3740    -0.8850     1.3640 hc         1 K7J       0.036200
     38 HAD          0.8630     0.8880     2.4100 hc         1 K7J       0.019200
     39 HADA         0.8650    -0.8810     2.4120 hc         1 K7J       0.019200
     40 HN          -1.6750     0.0280    -1.1660 hn         1 K7J       0.198500
     41 HA           0.9650     0.5850    -2.3300 h1         1 K7J       0.064700
     42 HB           1.4920    -1.5300    -2.8950 hc         1 K7J       0.012700
     43 HBC          0.0490    -2.1130    -2.0550 hc         1 K7J       0.012700
     44 HBE         -0.0390    -1.6810    -3.7680 hc         1 K7J       0.012700
     45 HNAJ         0.5900     0.3990    -4.9890 hn         1 K7J       0.203500
     46 HAK         -2.2100     1.0330    -5.6460 h1         1 K7J       0.063700
     47 HAX         -1.9930     3.2800    -5.9740 hc         1 K7J       0.019033
     48 HAXA        -0.3340     3.1300    -6.5690 hc         1 K7J       0.019033
     49 HAXB        -0.6530     3.1330    -4.8290 hc         1 K7J       0.019033
     50 HAN         -1.1710    -0.3290    -9.7280 h1         1 K7J       0.049700
     51 HBB         -1.6280     2.3440   -11.0120 hc         1 K7J       0.024700
     52 HBBA        -2.3820     0.7660   -11.3780 hc         1 K7J       0.024700
     53 HBA         -3.8940     0.9350    -9.5190 hc         1 K7J       0.027700
     54 HBAA        -3.7890     2.6510   -10.0190 hc         1 K7J       0.027700
     55 HAZ         -2.1340     3.1470    -8.3630 h1         1 K7J       0.030200
     56 HAZA        -3.1560     1.9800    -7.4860 h1         1 K7J       0.030200
     57 HOAE         3.5530     3.5490   -13.2250 ho         1 K7J       0.395000
     58 HAQ          2.8480     1.1700   -10.6850 h1         1 K7J       0.081700
     59 HNAP         0.2840     0.3680   -11.8910 hn         1 K7J       0.177500
     60 HBD          2.0810     0.3100   -13.4980 hc         1 K7J       0.029200
     61 HBDA         3.7360     0.6500   -12.9710 hc         1 K7J       0.029200
     62 HBF          0.8810    -1.6360   -12.6770 ha         1 K7J       0.102500
     63 HBH          4.8800    -0.8230   -11.4150 ha         1 K7J       0.102500
     64 HBI          1.0690    -3.9300   -11.7920 ha         1 K7J       0.103000
     65 HBK          5.0640    -3.1130   -10.5220 ha         1 K7J       0.103000
     66 HBJ          3.1500    -4.6680   -10.7110 ha         1 K7J       0.104000
     67 CAS          1.6850     3.6130   -10.9940 c3         1 K7J       0.046000
     68 Cl1          1.5520     5.2870   -11.6510 cl         1 K7J      -0.165400
     69 HAS          0.7070     3.2710   -10.6770 h1         1 K7J       0.055200
     70 HASA         2.3610     3.6100   -10.1470 h1         1 K7J       0.055200
     71 HAR          1.5960     2.7510   -12.9610 h1         1 K7J       0.002700
@<TRIPOS>BOND
     1     1     2 2   
     2     1     3 1   
     3     1     8 1   
     4     3     4 1   
     5     3    36 1   
     6     3    37 1   
     7     4     5 1   
     8     4    38 1   
     9     4    39 1   
    10     5     6 1   
    11     5     7 1   
    12     8     9 1   
    13     8    40 1   
    14     9    10 1   
    15     9    12 1   
    16     9    41 1   
    17    10    11 2   
    18    10    13 1   
    19    12    42 1   
    20    12    43 1   
    21    12    44 1   
    22    13    14 1   
    23    13    45 1   
    24    14    15 1   
    25    14    17 1   
    26    14    46 1   
    27    15    16 2   
    28    15    18 1   
    29    17    47 1   
    30    17    48 1   
    31    17    49 1   
    32    18    19 1   
    33    18    24 1   
    34    19    20 1   
    35    19    22 1   
    36    19    50 1   
    37    20    21 2   
    38    20    28 1   
    39    22    23 1   
    40    22    51 1   
    41    22    52 1   
    42    23    24 1   
    43    23    53 1   
    44    23    54 1   
    45    24    55 1   
    46    24    56 1   
    47    25    26 1   
    48    25    27 1   
    49    25    67 1   
    50    25    71 1   
    51    26    57 1   
    52    27    28 1   
    53    27    29 1   
    54    27    58 1   
    55    28    59 1   
    56    29    30 1   
    57    29    60 1   
    58    29    61 1   
    59    30    31 ar  
    60    30    32 ar  
    61    31    33 ar  
    62    31    62 1   
    63    32    34 ar  
    64    32    63 1   
    65    33    35 ar  
    66    33    64 1   
    67    34    35 ar  
    68    34    65 1   
    69    35    66 1   
    70    67    68 1   
    71    67    69 1   
    72    67    70 1   
@<TRIPOS>SUBSTRUCTURE
     1 K7J         1 TEMP              0 ****  ****    0 ROOT
