@<TRIPOS>MOLECULE
molecule
   71    72     1     0     0
SMALL
bcc


@<TRIPOS>ATOM
      1 CAF          0.0000     0.0000     0.0000 c          1 K7J       0.650100
      2 OAU          1.2130     0.0000     0.0000 o          1 K7J      -0.629100
      3 CAE         -0.7530     0.0000     1.3060 c3         1 K7J      -0.132400
      4 CAD          0.2410     0.0020     2.4690 c3         1 K7J      -0.169400
      5 CAB         -0.5120     0.0030     3.7740 c          1 K7J       0.889600
      6 OAA         -1.7200     0.0010     3.7740 o          1 K7J      -0.857300
      7 OAC          0.1600     0.0040     4.9360 o          1 K7J      -0.857300
      8 N           -0.6740     0.0040    -1.1660 ns         1 K7J      -0.588900
      9 CA           0.0570     0.0020    -2.4360 c3         1 K7J       0.046700
     10 C           -0.8050     0.6070    -3.5140 c          1 K7J       0.654100
     11 O           -1.9210     1.0000    -3.2480 o          1 K7J      -0.621100
     12 CB           0.4160    -1.4350    -2.8160 c3         1 K7J      -0.108100
     13 NAJ         -0.3360     0.7120    -4.7720 ns         1 K7J      -0.573900
     14 CAK         -1.1740     1.3000    -5.8200 c3         1 K7J       0.053700
     15 CAL         -0.7400     0.7750    -7.1640 c          1 K7J       0.681100
     16 OAY          0.1790    -0.0130    -7.2400 o          1 K7J      -0.590100
     17 CAX         -1.0280     2.8220    -5.7960 c3         1 K7J      -0.109100
     18 NAM         -1.3730     1.1810    -8.2830 n          1 K7J      -0.480800
     19 CAN         -1.0590     0.7460    -9.6510 c3         1 K7J       0.044700
     20 CAO          0.3500     1.1480   -10.0060 c          1 K7J       0.649100
     21 OBC          1.0320     1.7420    -9.1980 o          1 K7J      -0.583100
     22 CBB         -2.0600     1.4430   -10.5950 c3         1 K7J      -0.094400
     23 CBA         -3.2430     1.7900    -9.6520 c3         1 K7J      -0.096400
     24 CAZ         -2.5010     2.1280    -8.3360 c3         1 K7J       0.094000
     25 CAR          2.2240     2.6810   -12.0810 c3         1 K7J       0.121100
     26 OAE          3.5590     3.0620   -12.4170 oh         1 K7J      -0.596800
     27 CAQ          2.2200     1.2400   -11.5650 c3         1 K7J       0.117700
     28 NAP          0.8510     0.8490   -11.2200 ns         1 K7J      -0.584900
     29 CBD          2.7590     0.3070   -12.6520 c3         1 K7J      -0.044100
     30 CBG          2.8710    -1.0910   -12.1030 ca         1 K7J      -0.085300
     31 CBF          1.8020    -1.9630   -12.2090 ca         1 K7J      -0.122000
     32 CBH          4.0430    -1.5050   -11.4990 ca         1 K7J      -0.122000
     33 CBI          1.9050    -3.2460   -11.7070 ca         1 K7J      -0.121500
     34 CBK          4.1450    -2.7890   -10.9950 ca         1 K7J      -0.121500
     35 CBJ          3.0750    -3.6590   -11.0970 ca         1 K7J      -0.124000
     36 HAE         -1.3770     0.8840     1.3630 hc         1 K7J       0.067200
     37 HAEA        -1.3740    -0.8850     1.3640 hc         1 K7J       0.067200
     38 HAD          0.8630     0.8880     2.4100 hc         1 K7J       0.044200
     39 HADA         0.8650    -0.8810     2.4120 hc         1 K7J       0.044200
     40 HN          -1.6750     0.0280    -1.1660 hn         1 K7J       0.331500
     41 HA           0.9650     0.5850    -2.3300 h1         1 K7J       0.092700
     42 HB           1.4920    -1.5300    -2.8950 hc         1 K7J       0.046033
     43 HBC          0.0490    -2.1130    -2.0550 hc         1 K7J       0.046033
     44 HBE         -0.0390    -1.6810    -3.7680 hc         1 K7J       0.046033
     45 HNAJ         0.5900     0.3990    -4.9890 hn         1 K7J       0.340500
     46 HAK         -2.2100     1.0330    -5.6460 h1         1 K7J       0.089700
     47 HAX         -1.9930     3.2800    -5.9740 hc         1 K7J       0.050367
     48 HAXA        -0.3340     3.1300    -6.5690 hc         1 K7J       0.050367
     49 HAXB        -0.6530     3.1330    -4.8290 hc         1 K7J       0.050367
     50 HAN         -1.1710    -0.3290    -9.7280 h1         1 K7J       0.080700
     51 HBB         -1.6280     2.3440   -11.0120 hc         1 K7J       0.056200
     52 HBBA        -2.3820     0.7660   -11.3780 hc         1 K7J       0.056200
     53 HBA         -3.8940     0.9350    -9.5190 hc         1 K7J       0.059700
     54 HBAA        -3.7890     2.6510   -10.0190 hc         1 K7J       0.059700
     55 HAZ         -2.1340     3.1470    -8.3630 h1         1 K7J       0.056700
     56 HAZA        -3.1560     1.9800    -7.4860 h1         1 K7J       0.056700
     57 HOAE         3.5530     3.5490   -13.2250 ho         1 K7J       0.410000
     58 HAQ          2.8480     1.1700   -10.6850 h1         1 K7J       0.105700
     59 HNAP         0.2840     0.3680   -11.8910 hn         1 K7J       0.313500
     60 HBD          2.0810     0.3100   -13.4980 hc         1 K7J       0.058700
     61 HBDA         3.7360     0.6500   -12.9710 hc         1 K7J       0.058700
     62 HBF          0.8810    -1.6360   -12.6770 ha         1 K7J       0.125000
     63 HBH          4.8800    -0.8230   -11.4150 ha         1 K7J       0.125000
     64 HBI          1.0690    -3.9300   -11.7920 ha         1 K7J       0.130500
     65 HBK          5.0640    -3.1130   -10.5220 ha         1 K7J       0.130500
     66 HBJ          3.1500    -4.6680   -10.7110 ha         1 K7J       0.131000
     67 CAS          1.6850     3.6130   -10.9940 c3         1 K7J       0.039000
     68 Cl1          1.5520     5.2870   -11.6510 cl         1 K7J      -0.229400
     69 HAS          0.7070     3.2710   -10.6770 h1         1 K7J       0.090200
     70 HASA         2.3610     3.6100   -10.1470 h1         1 K7J       0.090200
     71 HAR          1.5960     2.7510   -12.9610 h1         1 K7J       0.035700
@<TRIPOS>BOND
     1    30    31 ar
     2    31    33 ar
     3    31    62 1
     4    33    35 ar
     5    33    64 1
     6    34    35 ar
     7    35    66 1
     8    32    34 ar
     9    34    65 1
    10    30    32 ar
    11    32    63 1
    12    29    30 1
    13    27    29 1
    14    29    60 1
    15    29    61 1
    16    25    27 1
    17    27    28 1
    18    27    58 1
    19    26    25 1
    20    67    25 1
    21    25    71 1
    22    26    57 1
    23    67    69 1
    24    67    70 1
    25    28    20 1
    26    28    59 1
    27    21    20 2
    28    20    19 1
    29    22    19 1
    30    19    18 1
    31    19    50 1
    32    22    23 1
    33    22    51 1
    34    22    52 1
    35    23    24 1
    36    23    53 1
    37    23    54 1
    38    18    24 1
    39    24    55 1
    40    24    56 1
    41    18    15 1
    42    16    15 2
    43    15    14 1
    44    17    14 1
    45    14    13 1
    46    14    46 1
    47    17    47 1
    48    17    48 1
    49    17    49 1
    50    13    10 1
    51    13    45 1
    52    10    11 2
    53    10     9 1
    54     9    12 1
    55     9     8 1
    56     9    41 1
    57    12    42 1
    58    12    43 1
    59    12    44 1
    60     8     1 1
    61     8    40 1
    62     2     1 2
    63     1     3 1
    64     3     4 1
    65     3    36 1
    66     3    37 1
    67     4     5 1
    68     4    38 1
    69     4    39 1
    70     6     5 1
    71     5     7 1
    72    67    68 1
@<TRIPOS>SUBSTRUCTURE
     1 K7J         1 TEMP              0 ****  ****    0 ROOT
