@<TRIPOS>MOLECULE
molecule
   32    33     1     0     0
SMALL
bcc


@<TRIPOS>ATOM
      1 CAJ          0.0000     0.0000     0.0000 ca         1 K80      -0.108500
      2 CAK          1.3830     0.0000     0.0000 ca         1 K80      -0.134000
      3 CAL          2.0740     0.0000     1.1970 ca         1 K80      -0.083300
      4 CAO          3.5810     0.0010     1.1970 c3         1 K80      -0.047800
      5 CAM          1.3820     0.0000     2.3940 ca         1 K80      -0.134000
      6 CAN          0.0000     0.0000     2.3940 ca         1 K80      -0.108500
      7 CAI         -0.6910     0.0000     1.1970 ca         1 K80      -0.083300
      8 CAC         -2.1980    -0.0010     1.1970 c3         1 K80       0.205800
      9 NAD         -2.7000     0.8630     2.2810 n7         1 K80      -0.797200
     10 CAE         -3.4870     0.0330     3.2180 c3         1 K80       0.151500
     11 CAF         -4.6900     0.8170     3.7440 c3         1 K80      -0.094100
     12 CAA         -3.9560    -1.1790     2.3750 c3         1 K80       0.090100
     13 OAH         -5.1050    -0.8450     1.5950 oh         1 K80      -0.582800
     14 CAB         -2.7220    -1.4270     1.4690 c3         1 K80       0.114100
     15 OAG         -3.1100    -2.0630     0.2490 oh         1 K80      -0.586800
     16 H1          -0.5420    -0.0000    -0.9380 ha         1 K80       0.135500
     17 H2           1.9250    -0.0000    -0.9380 ha         1 K80       0.128500
     18 H3           3.9420    -0.9820     0.9200 hc         1 K80       0.042033
     19 H4           3.9420     0.2530     2.1870 hc         1 K80       0.042033
     20 H5           3.9410     0.7320     0.4840 hc         1 K80       0.042033
     21 H6           1.9240     0.0000     3.3330 ha         1 K80       0.128500
     22 H7          -0.5410     0.0000     3.3320 ha         1 K80       0.135500
     23 H8          -2.5730     0.3520     0.2440 h1         1 K80       0.074700
     24 H9          -3.2860     1.5770     1.8950 hn         1 K80       0.365800
     25 H11         -2.8610    -0.3010     4.0370 h1         1 K80       0.070700
     26 H12         -5.2530     1.2170     2.9090 hc         1 K80       0.044367
     27 H13         -5.3250     0.1590     4.3250 hc         1 K80       0.044367
     28 H14         -4.3450     1.6310     4.3700 hc         1 K80       0.044367
     29 H15         -4.1460    -2.0370     3.0090 h1         1 K80       0.039700
     30 H16         -5.7230    -1.5570     1.6250 ho         1 K80       0.405000
     31 H17         -1.9770    -2.0120     1.9930 h1         1 K80       0.053700
     32 H18         -2.8380    -2.9660     0.2650 ho         1 K80       0.399000
@<TRIPOS>BOND
     1    13    12 1
     2    15    14 1
     3    12    14 1
     4    12    10 1
     5    14     8 1
     6    11    10 1
     7     8     9 1
     8     8     7 1
     9     9    10 1
    10     1     7 ar
    11     1     2 ar
    12     7     6 ar
    13     2     3 ar
    14     6     5 ar
    15     3     5 ar
    16     3     4 1
    17     1    16 1
    18     2    17 1
    19     4    18 1
    20     4    19 1
    21     4    20 1
    22     5    21 1
    23     6    22 1
    24     8    23 1
    25     9    24 1
    26    10    25 1
    27    11    26 1
    28    11    27 1
    29    11    28 1
    30    12    29 1
    31    13    30 1
    32    14    31 1
    33    15    32 1
@<TRIPOS>SUBSTRUCTURE
     1 K80         1 TEMP              0 ****  ****    0 ROOT
