@<TRIPOS>MOLECULE
K82
   28    28     1     0     0
SMALL
bcc


@<TRIPOS>ATOM
      1 Cl           0.0000     0.0000     0.0000 cl         1 K82       0.064600
      2 C4           1.7360     0.0000     0.0000 ca         1 K82      -0.093600
      3 C5           2.4280     0.0000     1.1960 ca         1 K82      -0.030000
      4 C6           3.8120     0.0000     1.1970 ca         1 K82      -0.263300
      5 C7           4.5630     0.0020     2.5030 c3         1 K82       0.049100
      6 N            4.8080    -1.3830     2.9280 nz         1 K82       0.068400
      7 C8           4.5050    -0.0010     0.0000 ca         1 K82      -0.019000
      8 C9           3.8180    -0.0010    -1.1980 ca         1 K82      -0.194000
      9 C3           2.4310    -0.0070    -1.2020 ca         1 K82       0.222100
     10 O            1.7540    -0.0080    -2.3800 os         1 K82      -0.277900
     11 C2           2.5350    -0.0030    -3.5780 c3         1 K82       0.198400
     12 C1           1.6040    -0.0050    -4.7920 c3         1 K82      -0.032400
     13 C            2.4400     0.0010    -6.0740 c3         1 K82       0.012900
     14 H1           1.8870     0.0080     2.1340 ha         1 K82       0.117000
     15 H2           5.5090     0.5130     2.3740 hx         1 K82       0.080200
     16 H3           3.9760     0.5120     3.2560 hx         1 K82       0.080200
     17 H4           5.1320    -1.3890     3.8750 hn         1 K82       0.222800
     18 H5           5.5010    -1.7960     2.3360 hn         1 K82       0.222800
     19 H7           5.5880     0.0020     0.0030 ha         1 K82       0.106000
     20 H8           4.3630    -0.0040    -2.1350 ha         1 K82       0.145000
     21 H9           3.1630    -0.8850    -3.6030 h1         1 K82       0.006700
     22 H10          3.1560     0.8850    -3.6000 h1         1 K82       0.006700
     23 H11          0.9830    -0.8920    -4.7700 hc         1 K82       0.029200
     24 H12          0.9750     0.8770    -4.7670 hc         1 K82       0.029200
     25 H13          3.0550     0.8920    -6.1000 hc         1 K82       0.008033
     26 H14          1.7820    -0.0090    -6.9350 hc         1 K82       0.008033
     27 H15          3.0740    -0.8770    -6.0960 hc         1 K82       0.008033
     28 HN3          3.9600    -1.9090     2.8570 hn         1 K82       0.222800
@<TRIPOS>BOND
     1     1     2 1   
     2     2     3 ar  
     3     2     9 ar  
     4     3     4 ar  
     5     3    14 1   
     6     4     5 1   
     7     4     7 ar  
     8     5     6 1   
     9     5    15 1   
    10     5    16 1   
    11     6    17 1   
    12     6    18 1   
    13     6    28 1   
    14     7     8 ar  
    15     7    19 1   
    16     8     9 ar  
    17     8    20 1   
    18     9    10 1   
    19    10    11 1   
    20    11    12 1   
    21    11    21 1   
    22    11    22 1   
    23    12    13 1   
    24    12    23 1   
    25    12    24 1   
    26    13    25 1   
    27    13    26 1   
    28    13    27 1   
@<TRIPOS>SUBSTRUCTURE
     1 K82         1 TEMP              0 ****  ****    0 ROOT
