@<TRIPOS>MOLECULE
molecule
   71    73     1     0     0
SMALL
bcc


@<TRIPOS>ATOM
      1 C21          0.0000     0.0000     0.0000 c          1 K83       0.671700
      2 O22          1.2150     0.0000     0.0000 o          1 K83      -0.585100
      3 C22         -0.7400     0.0000     1.2810 ca         1 K83      -0.130600
      4 C27         -0.0440    -0.0060     2.4900 ca         1 K83      -0.086000
      5 C26         -0.7440     0.0010     3.6850 ca         1 K83       0.098100
      6 C25         -2.1330     0.0010     3.6770 ca         1 K83      -0.142000
      7 C24         -2.8220     0.0010     2.4790 ca         1 K83      -0.123000
      8 C23         -2.1360     0.0000     1.2830 ca         1 K83      -0.121000
      9 O27         -0.0710     0.0010     4.8660 oh         1 K83      -0.516100
     10 N11         -0.8100     1.4170    -5.8400 n3         1 K83      -0.810500
     11 C12         -1.7450     0.6610    -6.6780 c3         1 K83       0.240800
     12 C13         -1.0050     0.1100    -7.8980 c3         1 K83      -0.096700
     13 C14          0.0390    -0.9120    -7.4440 c3         1 K83      -0.088100
     14 C15         -2.0050    -0.5660    -8.8390 c3         1 K83      -0.088100
     15 C16         -0.0110     0.7250    -4.8260 c3         1 K83       0.224800
     16 C17         -0.8180     0.6100    -3.5320 c3         1 K83       0.104100
     17 O18         -1.9570    -0.2260    -3.7520 oh         1 K83      -0.599800
     18 C19          0.0580     0.0000    -2.4350 c3         1 K83       0.099700
     19 N20         -0.6740     0.0000    -1.1680 ns         1 K83      -0.582900
     20 C32          0.4220    -1.4370    -2.8150 c3         1 K83      -0.044100
     21 C33          0.9040    -2.6570    -0.6840 ca         1 K83      -0.117500
     22 C34          1.7860    -3.1700     0.2490 ca         1 K83      -0.119500
     23 C35          3.1490    -3.0220     0.0660 ca         1 K83      -0.125000
     24 C36          3.6290    -2.3620    -1.0500 ca         1 K83      -0.119500
     25 C37          2.7460    -1.8490    -1.9820 ca         1 K83      -0.117500
     26 C38          1.3840    -1.9960    -1.7990 ca         1 K83      -0.073300
     27 S8          -0.6570     3.0540    -6.0400 sy         1 K83       1.423200
     28 O9          -1.0790     3.3370    -7.3670 o          1 K83      -0.635800
     29 O10          0.6290     3.4000    -5.5420 o          1 K83      -0.635800
     30 C5          -1.8270     3.8220    -4.9700 ca         1 K83      -0.357500
     31 C4          -1.4670     4.1520    -3.6770 ca         1 K83       0.005500
     32 C6          -3.1040     4.0930    -5.4260 ca         1 K83       0.005500
     33 C3          -2.3830     4.7550    -2.8360 ca         1 K83      -0.215000
     34 C7          -4.0260     4.6890    -4.5870 ca         1 K83      -0.215000
     35 C2          -3.6650     5.0270    -3.2910 ca         1 K83       0.190100
     36 O1          -4.5680     5.6190    -2.4660 os         1 K83      -0.323900
     37 C1          -5.8690     5.8710    -3.0010 c3         1 K83       0.125700
     38 H27          1.0390    -0.0060     2.4950 ha         1 K83       0.172000
     39 H25         -2.6780     0.0040     4.6140 ha         1 K83       0.141000
     40 H24         -3.9060     0.0010     2.4800 ha         1 K83       0.135000
     41 H23         -2.6790     0.0010     0.3460 ha         1 K83       0.123000
     42 HO27        -0.0900     0.8670     5.2390 ho         1 K83       0.422000
     43 H12         -2.1590    -0.1600    -6.1050 h1         1 K83       0.060200
     44 H12A        -2.5450     1.3140    -7.0050 h1         1 K83       0.060200
     45 H13         -0.5120     0.9220    -8.4190 hc         1 K83       0.067700
     46 H14          0.3190    -1.5380    -8.2820 hc         1 K83       0.035700
     47 H14A        -0.3780    -1.5280    -6.6570 hc         1 K83       0.035700
     48 H14B         0.9140    -0.3930    -7.0720 hc         1 K83       0.035700
     49 H15         -2.7650     0.1480    -9.1320 hc         1 K83       0.035700
     50 H15A        -1.4860    -0.9230    -9.7210 hc         1 K83       0.035700
     51 H15B        -2.4710    -1.4010    -8.3310 hc         1 K83       0.035700
     52 H16          0.8960     1.2850    -4.6370 h1         1 K83       0.083700
     53 H16A         0.2430    -0.2660    -5.1820 h1         1 K83       0.083700
     54 H17         -1.1480     1.5950    -3.2240 h1         1 K83       0.040700
     55 HO18        -2.6860     0.0980    -3.2500 ho         1 K83       0.399000
     56 H19          0.9640     0.5860    -2.3300 h1         1 K83       0.090700
     57 HN20        -1.6740     0.0350    -1.1680 hn         1 K83       0.308500
     58 H32          0.8850    -1.4460    -3.7940 hc         1 K83       0.058700
     59 H32A        -0.4760    -2.0440    -2.8340 hc         1 K83       0.058700
     60 H33         -0.1640    -2.7730    -0.5400 ha         1 K83       0.123000
     61 H34          1.4100    -3.6870     1.1230 ha         1 K83       0.126000
     62 H35          3.8400    -3.4240     0.7960 ha         1 K83       0.125000
     63 H36          4.6960    -2.2460    -1.1940 ha         1 K83       0.126000
     64 H37          3.1220    -1.3320    -2.8570 ha         1 K83       0.123000
     65 H4          -0.4660     3.9400    -3.3220 ha         1 K83       0.153000
     66 H6          -3.3850     3.8290    -6.4380 ha         1 K83       0.153000
     67 H3          -2.1000     5.0160    -1.8240 ha         1 K83       0.147000
     68 H7          -5.0260     4.9010    -4.9440 ha         1 K83       0.147000
     69 H1          -6.4840     6.3460    -2.2460 h1         1 K83       0.046033
     70 H1A         -6.3240     4.9340    -3.3000 h1         1 K83       0.046033
     71 H1B         -5.7860     6.5230    -3.8610 h1         1 K83       0.046033
@<TRIPOS>BOND
     1    37    36 1
     2    36    35 1
     3    35    33 ar
     4    35    34 ar
     5    33    31 ar
     6    31    30 ar
     7    30    32 ar
     8    30    27 1
     9    32    34 ar
    10    27    28 2
    11    27    29 2
    12    27    10 1
    13    10    11 1
    14    10    15 1
    15    11    12 1
    16    12    13 1
    17    12    14 1
    18    15    16 1
    19    16    17 1
    20    16    18 1
    21    18    19 1
    22    18    20 1
    23    19     1 1
    24     1     3 1
    25     1     2 2
    26     3     8 ar
    27     3     4 ar
    28     8     7 ar
    29     7     6 ar
    30     6     5 ar
    31     5     4 ar
    32     5     9 1
    33    20    26 1
    34    21    22 ar
    35    21    26 ar
    36    22    23 ar
    37    23    24 ar
    38    24    25 ar
    39    25    26 ar
    40    37    69 1
    41    37    70 1
    42    37    71 1
    43    33    67 1
    44    31    65 1
    45    32    66 1
    46    34    68 1
    47    11    43 1
    48    11    44 1
    49    12    45 1
    50    13    46 1
    51    13    47 1
    52    13    48 1
    53    14    49 1
    54    14    50 1
    55    14    51 1
    56    15    52 1
    57    15    53 1
    58    16    54 1
    59    17    55 1
    60    18    56 1
    61    19    57 1
    62     8    41 1
    63     7    40 1
    64     6    39 1
    65     4    38 1
    66     9    42 1
    67    20    58 1
    68    20    59 1
    69    21    60 1
    70    22    61 1
    71    23    62 1
    72    24    63 1
    73    25    64 1
@<TRIPOS>SUBSTRUCTURE
     1 K83         1 TEMP              0 ****  ****    0 ROOT
