@<TRIPOS>MOLECULE
K83
   71    73     1     0     0
SMALL
bcc


@<TRIPOS>ATOM
      1 C21          0.0000     0.0000     0.0000 c          1 K83       0.594700
      2 O22          1.2150     0.0000     0.0000 o          1 K83      -0.627100
      3 C22         -0.7400     0.0000     1.2810 ca         1 K83      -0.134600
      4 C27         -0.0440    -0.0060     2.4900 ca         1 K83      -0.066000
      5 C26         -0.7440     0.0010     3.6850 ca         1 K83       0.116100
      6 C25         -2.1330     0.0010     3.6770 ca         1 K83      -0.128000
      7 C24         -2.8220     0.0010     2.4790 ca         1 K83      -0.087000
      8 C23         -2.1360     0.0000     1.2830 ca         1 K83      -0.108000
      9 O27         -0.0710     0.0010     4.8660 oh         1 K83      -0.496100
     10 N11         -0.8100     1.4170    -5.8400 n3         1 K83      -0.516500
     11 C12         -1.7450     0.6610    -6.6780 c3         1 K83       0.233800
     12 C13         -1.0050     0.1100    -7.8980 c3         1 K83      -0.081700
     13 C14          0.0390    -0.9120    -7.4440 c3         1 K83       0.004900
     14 C15         -2.0050    -0.5660    -8.8390 c3         1 K83       0.004900
     15 C16         -0.0110     0.7250    -4.8260 c3         1 K83       0.193800
     16 C17         -0.8180     0.6100    -3.5320 c3         1 K83       0.143100
     17 O18         -1.9570    -0.2260    -3.7520 oh         1 K83      -0.580800
     18 C19          0.0580     0.0000    -2.4350 c3         1 K83      -0.002300
     19 N20         -0.6740     0.0000    -1.1680 ns         1 K83      -0.198900
     20 C32          0.4220    -1.4370    -2.8150 c3         1 K83       0.013900
     21 C33          0.9040    -2.6570    -0.6840 ca         1 K83      -0.093000
     22 C34          1.7860    -3.1700     0.2490 ca         1 K83      -0.090500
     23 C35          3.1490    -3.0220     0.0660 ca         1 K83      -0.099000
     24 C36          3.6290    -2.3620    -1.0500 ca         1 K83      -0.090500
     25 C37          2.7460    -1.8490    -1.9820 ca         1 K83      -0.093000
     26 C38          1.3840    -1.9960    -1.7990 ca         1 K83      -0.081300
     27 S8          -0.6570     3.0540    -6.0400 sy         1 K83       1.049200
     28 O9          -1.0790     3.3370    -7.3670 o          1 K83      -0.587300
     29 O10          0.6290     3.4000    -5.5420 o          1 K83      -0.587300
     30 C5          -1.8270     3.8220    -4.9700 ca         1 K83      -0.207500
     31 C4          -1.4670     4.1520    -3.6770 ca         1 K83       0.043500
     32 C6          -3.1040     4.0930    -5.4260 ca         1 K83       0.043500
     33 C3          -2.3830     4.7550    -2.8360 ca         1 K83      -0.211000
     34 C7          -4.0260     4.6890    -4.5870 ca         1 K83      -0.211000
     35 C2          -3.6650     5.0270    -3.2910 ca         1 K83       0.200100
     36 O1          -4.5680     5.6190    -2.4660 os         1 K83      -0.305900
     37 C1          -5.8690     5.8710    -3.0010 c3         1 K83       0.245700
     38 H27          1.0390    -0.0060     2.4950 ha         1 K83       0.141000
     39 H25         -2.6780     0.0040     4.6140 ha         1 K83       0.113000
     40 H24         -3.9060     0.0010     2.4800 ha         1 K83       0.104000
     41 H23         -2.6790     0.0010     0.3460 ha         1 K83       0.099000
     42 HO27        -0.0900     0.8670     5.2390 ho         1 K83       0.404000
     43 H12         -2.1590    -0.1600    -6.1050 h1         1 K83       0.027700
     44 H12A        -2.5450     1.3140    -7.0050 h1         1 K83       0.027700
     45 H13         -0.5120     0.9220    -8.4190 hc         1 K83       0.047700
     46 H14          0.3190    -1.5380    -8.2820 hc         1 K83       0.004200
     47 H14A        -0.3780    -1.5280    -6.6570 hc         1 K83       0.004200
     48 H14B         0.9140    -0.3930    -7.0720 hc         1 K83       0.004200
     49 H15         -2.7650     0.1480    -9.1320 hc         1 K83       0.004200
     50 H15A        -1.4860    -0.9230    -9.7210 hc         1 K83       0.004200
     51 H15B        -2.4710    -1.4010    -8.3310 hc         1 K83       0.004200
     52 H16          0.8960     1.2850    -4.6370 h1         1 K83       0.055700
     53 H16A         0.2430    -0.2660    -5.1820 h1         1 K83       0.055700
     54 H17         -1.1480     1.5950    -3.2240 h1         1 K83       0.009700
     55 HO18        -2.6860     0.0980    -3.2500 ho         1 K83       0.386000
     56 H19          0.9640     0.5860    -2.3300 h1         1 K83       0.069700
     57 HN20        -1.6740     0.0350    -1.1680 hn         1 K83       0.173500
     58 H32          0.8850    -1.4460    -3.7940 hc         1 K83       0.031200
     59 H32A        -0.4760    -2.0440    -2.8340 hc         1 K83       0.031200
     60 H33         -0.1640    -2.7730    -0.5400 ha         1 K83       0.099000
     61 H34          1.4100    -3.6870     1.1230 ha         1 K83       0.099000
     62 H35          3.8400    -3.4240     0.7960 ha         1 K83       0.098000
     63 H36          4.6960    -2.2460    -1.1940 ha         1 K83       0.099000
     64 H37          3.1220    -1.3320    -2.8570 ha         1 K83       0.099000
     65 H4          -0.4660     3.9400    -3.3220 ha         1 K83       0.123500
     66 H6          -3.3850     3.8290    -6.4380 ha         1 K83       0.123500
     67 H3          -2.1000     5.0160    -1.8240 ha         1 K83       0.125500
     68 H7          -5.0260     4.9010    -4.9440 ha         1 K83       0.125500
     69 H1          -6.4840     6.3460    -2.2460 h1         1 K83       0.000367
     70 H1A         -6.3240     4.9340    -3.3000 h1         1 K83       0.000367
     71 H1B         -5.7860     6.5230    -3.8610 h1         1 K83       0.000367
@<TRIPOS>BOND
     1     1     2 2   
     2     1     3 1   
     3     1    19 1   
     4     3     4 ar  
     5     3     8 ar  
     6     4     5 ar  
     7     4    38 1   
     8     5     6 ar  
     9     5     9 1   
    10     6     7 ar  
    11     6    39 1   
    12     7     8 ar  
    13     7    40 1   
    14     8    41 1   
    15     9    42 1   
    16    10    11 1   
    17    10    15 1   
    18    10    27 1   
    19    11    12 1   
    20    11    43 1   
    21    11    44 1   
    22    12    13 1   
    23    12    14 1   
    24    12    45 1   
    25    13    46 1   
    26    13    47 1   
    27    13    48 1   
    28    14    49 1   
    29    14    50 1   
    30    14    51 1   
    31    15    16 1   
    32    15    52 1   
    33    15    53 1   
    34    16    17 1   
    35    16    18 1   
    36    16    54 1   
    37    17    55 1   
    38    18    19 1   
    39    18    20 1   
    40    18    56 1   
    41    19    57 1   
    42    20    26 1   
    43    20    58 1   
    44    20    59 1   
    45    21    22 ar  
    46    21    26 ar  
    47    21    60 1   
    48    22    23 ar  
    49    22    61 1   
    50    23    24 ar  
    51    23    62 1   
    52    24    25 ar  
    53    24    63 1   
    54    25    26 ar  
    55    25    64 1   
    56    27    28 2   
    57    27    29 2   
    58    27    30 1   
    59    30    31 ar  
    60    30    32 ar  
    61    31    33 ar  
    62    31    65 1   
    63    32    34 ar  
    64    32    66 1   
    65    33    35 ar  
    66    33    67 1   
    67    34    35 ar  
    68    34    68 1   
    69    35    36 1   
    70    36    37 1   
    71    37    69 1   
    72    37    70 1   
    73    37    71 1   
@<TRIPOS>SUBSTRUCTURE
     1 K83         1 TEMP              0 ****  ****    0 ROOT
