@<TRIPOS>MOLECULE
K84
   67    68     1     0     0
SMALL
bcc


@<TRIPOS>ATOM
      1 C21         0.1430    0.4310    0.6470 c2        1 K84     -0.174200
      2 C22         1.2980   -0.2440    0.6320 c2        1 K84     -0.173200
      3 C23         2.0280   -0.6530    1.8540 c3        1 K84     -0.049200
      4 C24         3.2810   -1.4430    1.5380 c3        1 K84     -0.077400
      5 C25         4.0060   -1.8470    2.8040 c3        1 K84     -0.079400
      6 C26         5.2600   -2.6350    2.4900 c3        1 K84     -0.079400
      7 C27         5.9860   -3.0400    3.7560 c3        1 K84     -0.079400
      8 C28         7.2400   -3.8270    3.4420 c3        1 K84     -0.079400
      9 C29         7.9670   -4.2320    4.7070 c3        1 K84     -0.080400
     10 C30         9.2170   -5.0160    4.3990 c3        1 K84     -0.092100
     11 OAA        -8.0350    5.6020    3.5370 o         1 K84     -0.479100
     12 CAD       -13.2850    8.9650    8.0050 ca        1 K84     -0.221300
     13 CAG       -12.5730    8.3670    9.0420 ca        1 K84     -0.102000
     14 CAH       -12.8200    8.7870    6.6850 ca        1 K84      0.394200
     15 CAK       -11.4320    7.6160    8.7420 ca        1 K84     -0.192300
     16 NAL        -8.9670    6.0880    7.9150 nc        1 K84     -0.353000
     17 CAM        -3.7410    2.8660    2.6090 c3        1 K84     -0.078400
     18 CAN        -4.4280    3.2770    3.8940 c3        1 K84     -0.078400
     19 CAO        -2.4890    2.0620    2.8900 c3        1 K84     -0.079400
     20 CAP        -5.6760    4.0830    3.6090 c3        1 K84     -0.078400
     21 CAQ        -1.8030    1.6490    1.6060 c3        1 K84     -0.077400
     22 CAR        -6.3600    4.4910    4.8960 c3        1 K84     -0.166400
     23 NAS       -11.7310    8.0740    6.3660 nb        1 K84     -0.625000
     24 NAT        -8.0430    5.4980    7.1900 nc        1 K84     -0.313000
     25 OAU        -9.4580    6.4950    5.7620 os        1 K84     -0.309800
     26 CAV        -0.5490    0.8490    1.8890 c3        1 K84     -0.049200
     27 CAW       -11.0440    7.4940    7.3890 ca        1 K84      0.351300
     28 CAX        -9.8500    6.7080    7.0870 cd        1 K84      0.425400
     29 CAY        -8.2990    5.7170    5.8800 cd        1 K84      0.358900
     30 CAZ        -7.5990    5.2950    4.6450 c         1 K84      0.511600
     31 H21        -0.3510    0.7090   -0.2980 ha        1 K84      0.122000
     32 H22         1.7630   -0.5270   -0.3260 ha        1 K84      0.122000
     33 H23         1.3490   -1.2700    2.5060 hc        1 K84      0.047700
     34 H23A        2.3000    0.2620    2.4500 hc        1 K84      0.047700
     35 H24         3.9630   -0.8250    0.8950 hc        1 K84      0.041700
     36 H24A        3.0110   -2.3590    0.9500 hc        1 K84      0.041700
     37 H25         3.3250   -2.4650    3.4470 hc        1 K84      0.039700
     38 H25A        4.2760   -0.9310    3.3930 hc        1 K84      0.039700
     39 H26         5.9410   -2.0180    1.8470 hc        1 K84      0.039700
     40 H26A        4.9900   -3.5520    1.9020 hc        1 K84      0.039700
     41 H27         5.3050   -3.6570    4.3990 hc        1 K84      0.039700
     42 H27A        6.2550   -2.1230    4.3440 hc        1 K84      0.039700
     43 H28         6.9710   -4.7440    2.8540 hc        1 K84      0.039700
     44 H28A        7.9210   -3.2100    2.7990 hc        1 K84      0.039700
     45 H29         8.2330   -3.3140    5.2950 hc        1 K84      0.038700
     46 H29A        7.2840   -4.8480    5.3490 hc        1 K84      0.038700
     47 H30         9.9210   -4.4090    3.7800 hc        1 K84      0.032700
     48 H30A        9.7370   -5.3030    5.3450 hc        1 K84      0.032700
     49 H30B        8.9690   -5.9470    3.8350 hc        1 K84      0.032700
     50 HAG       -12.8990    8.4790   10.0870 ha        1 K84      0.148000
     51 HAH       -13.3530    9.2430    5.8300 h4        1 K84      0.033100
     52 HAK       -10.8510    7.1340    9.5410 ha        1 K84      0.170000
     53 HAM        -3.4760    3.7800    2.0150 hc        1 K84      0.042700
     54 HAMA       -4.4460    2.2570    1.9840 hc        1 K84      0.042700
     55 HAN        -3.7220    3.8840    4.5210 hc        1 K84      0.041700
     56 HANA       -4.6950    2.3630    4.4870 hc        1 K84      0.041700
     57 HAO        -1.7830    2.6720    3.5150 hc        1 K84      0.039700
     58 HAOA       -2.7530    1.1490    3.4860 hc        1 K84      0.039700
     59 HAP        -6.3860    3.4820    2.9810 hc        1 K84      0.055700
     60 HAPA       -5.4150    5.0000    3.0170 hc        1 K84      0.055700
     61 HAQ        -2.5080    1.0380    0.9830 hc        1 K84      0.042200
     62 HAQA       -1.5400    2.5620    1.0090 hc        1 K84      0.042200
     63 HAR        -5.6610    5.1010    5.5300 hc        1 K84      0.085200
     64 HARA       -6.6400    3.5810    5.4920 hc        1 K84      0.085200
     65 HAV         0.1530    1.4600    2.5210 hc        1 K84      0.047700
     66 HAVA       -0.8130   -0.0630    2.4920 hc        1 K84      0.047700
     67 HAD       -14.1860    9.5620    8.2000 ha        1 K84      0.151000
@<TRIPOS>BOND
     1    1    2 2   
     2    1   26 1   
     3    1   31 1   
     4    2    3 1   
     5    2   32 1   
     6    3    4 1   
     7    3   33 1   
     8    3   34 1   
     9    4    5 1   
    10    4   35 1   
    11    4   36 1   
    12    5    6 1   
    13    5   37 1   
    14    5   38 1   
    15    6    7 1   
    16    6   39 1   
    17    6   40 1   
    18    7    8 1   
    19    7   41 1   
    20    7   42 1   
    21    8    9 1   
    22    8   43 1   
    23    8   44 1   
    24    9   10 1   
    25    9   45 1   
    26    9   46 1   
    27   10   47 1   
    28   10   48 1   
    29   10   49 1   
    30   11   30 2   
    31   12   13 ar  
    32   12   14 ar  
    33   12   67 1   
    34   13   15 ar  
    35   13   50 1   
    36   14   23 ar  
    37   14   51 1   
    38   15   27 ar  
    39   15   52 1   
    40   16   24 1   
    41   16   28 2   
    42   17   18 1   
    43   17   19 1   
    44   17   53 1   
    45   17   54 1   
    46   18   20 1   
    47   18   55 1   
    48   18   56 1   
    49   19   21 1   
    50   19   57 1   
    51   19   58 1   
    52   20   22 1   
    53   20   59 1   
    54   20   60 1   
    55   21   26 1   
    56   21   61 1   
    57   21   62 1   
    58   22   30 1   
    59   22   63 1   
    60   22   64 1   
    61   23   27 ar  
    62   24   29 2   
    63   25   28 1   
    64   25   29 1   
    65   26   65 1   
    66   26   66 1   
    67   27   28 1   
    68   29   30 1   
@<TRIPOS>SUBSTRUCTURE
     1 K84         1 TEMP              0 ****  ****    0 ROOT
