@<TRIPOS>MOLECULE
K85
   43    44     1     0     0
SMALL
bcc


@<TRIPOS>ATOM
      1 F19        -0.3100    0.4380    0.3380 f         1 K85     -0.236633
      2 C17         1.0590    0.3470    0.2800 c3        1 K85      0.688200
      3 F20         1.4510    0.3470    1.5980 f         1 K85     -0.236633
      4 F18         1.2930   -0.9420   -0.1350 f         1 K85     -0.236633
      5 C13         1.7330    1.4110   -0.5810 ca        1 K85     -0.142300
      6 C14         1.0530    1.9440   -1.6710 ca        1 K85     -0.082000
      7 C12         3.0320    1.8170   -0.2610 ca        1 K85     -0.155000
      8 C11         3.6470    2.7790   -1.0640 ca        1 K85      0.115100
      9 O15         4.9230    3.2670   -0.8590 os        1 K85     -0.322900
     10 C16         5.6320    2.7240    0.2510 c3        1 K85      0.110700
     11 C10         2.9810    3.3330   -2.1750 ca        1 K85     -0.103000
     12 C9          1.6830    2.9130   -2.4720 ca        1 K85     -0.082500
     13 C6          0.9740    3.4790   -3.6190 cc        1 K85      0.561500
     14 N7         -0.1640    2.8710   -4.2110 nc        1 K85     -0.670000
     15 C8         -0.4890    3.7070   -5.2130 cd        1 K85      0.411400
     16 N5          1.3200    4.6500   -4.2530 nd        1 K85     -0.505800
     17 N4          0.4230    4.7860   -5.2390 na        1 K85     -0.055400
     18 C3          0.3860    5.8980   -6.1680 c3        1 K85      0.060300
     19 C2          0.2100    7.2580   -5.4920 c3        1 K85     -0.151400
     20 C1         -0.0110    8.3080   -6.5380 c         1 K85      0.635100
     21 O          -0.3430    8.1510   -7.7150 o         1 K85     -0.550000
     22 O1'         0.1890    9.5670   -6.0570 os        1 K85     -0.435900
     23 C2'        -0.0110   10.6760   -6.9660 c3        1 K85      0.149100
     24 C4'        -1.4860   11.0130   -7.0330 c3        1 K85     -0.110100
     25 C3'         0.8110   11.8130   -6.3920 c3        1 K85     -0.110100
     26 H1          0.0280    1.6070   -1.8970 ha        1 K85      0.173000
     27 H2          3.5410    1.3800    0.6120 ha        1 K85      0.156000
     28 H3          5.7730    1.6230    0.1280 h1        1 K85      0.049033
     29 H4          6.6170    3.2560    0.2120 h1        1 K85      0.049033
     30 H5          5.0990    2.9500    1.2060 h1        1 K85      0.049033
     31 H6          3.5000    4.0870   -2.7860 ha        1 K85      0.170000
     32 H7         -1.3150    3.5950   -5.9240 h5        1 K85      0.076100
     33 H8         -0.4700    5.7170   -6.8790 h1        1 K85      0.082700
     34 H9          1.3450    5.9060   -6.7620 h1        1 K85      0.082700
     35 H10        -0.6770    7.2630   -4.8040 hc        1 K85      0.099200
     36 H11         1.1140    7.5200   -4.8800 hc        1 K85      0.099200
     37 H12         0.3690   10.3820   -7.9850 h1        1 K85      0.070700
     38 H13        -2.0540   10.1480   -7.4520 hc        1 K85      0.049700
     39 H14        -1.6370   11.9010   -7.6920 hc        1 K85      0.049700
     40 H15        -1.8820   11.2450   -6.0160 hc        1 K85      0.049700
     41 H16         0.7040   12.7080   -7.0500 hc        1 K85      0.049700
     42 H17         1.8870   11.5240   -6.3350 hc        1 K85      0.049700
     43 H18         0.4590   12.0700   -5.3640 hc        1 K85      0.049700
@<TRIPOS>BOND
     1    1    2 1   
     2    2    3 1   
     3    2    4 1   
     4    2    5 1   
     5    5    6 ar  
     6    5    7 ar  
     7    6   12 ar  
     8    6   26 1   
     9    7    8 ar  
    10    7   27 1   
    11    8    9 1   
    12    8   11 ar  
    13    9   10 1   
    14   10   28 1   
    15   10   29 1   
    16   10   30 1   
    17   11   12 ar  
    18   11   31 1   
    19   12   13 1   
    20   13   14 1   
    21   13   16 2   
    22   14   15 2   
    23   15   17 1   
    24   15   32 1   
    25   16   17 1   
    26   17   18 1   
    27   18   19 1   
    28   18   33 1   
    29   18   34 1   
    30   19   20 1   
    31   19   35 1   
    32   19   36 1   
    33   20   21 2   
    34   20   22 1   
    35   22   23 1   
    36   23   24 1   
    37   23   25 1   
    38   23   37 1   
    39   24   38 1   
    40   24   39 1   
    41   24   40 1   
    42   25   41 1   
    43   25   42 1   
    44   25   43 1   
@<TRIPOS>SUBSTRUCTURE
     1 K85         1 TEMP              0 ****  ****    0 ROOT
