@<TRIPOS>MOLECULE
molecule
   43    44     1     0     0
SMALL
bcc


@<TRIPOS>ATOM
      1 F19          0.0000     0.0000     0.0000 f          1 K85      -0.222967
      2 C17          1.3990     0.0000     0.0000 c3         1 K85       0.675200
      3 F20          1.8650     0.0000     1.3190 f          1 K85      -0.222967
      4 F18          1.8650    -1.1440    -0.6580 f          1 K85      -0.222967
      5 C13          1.9020     1.2290    -0.7110 ca         1 K85      -0.151300
      6 C14          1.1550     1.7910    -1.7270 ca         1 K85      -0.084000
      7 C12          3.1080     1.7950    -0.3400 ca         1 K85      -0.170000
      8 C11          3.5770     2.9270    -0.9920 ca         1 K85       0.131100
      9 O15          4.7630     3.4800    -0.6250 os         1 K85      -0.323900
     10 C16          5.4730     2.8430     0.4390 c3         1 K85       0.125700
     11 C10          2.8370     3.4940    -2.0170 ca         1 K85      -0.106000
     12 C9           1.6190     2.9280    -2.3860 ca         1 K85      -0.078500
     13 C6           0.8180     3.5330    -3.4780 cc         1 K85       0.628500
     14 N7          -0.3640     3.0840    -3.9220 nc         1 K85      -0.753000
     15 C8          -0.7930     3.8490    -4.8900 cd         1 K85       0.457400
     16 N5           1.1470     4.6050    -4.1670 nd         1 K85      -0.539800
     17 N4           0.1150     4.8210    -5.0940 na         1 K85      -0.071400
     18 C3           0.0380     5.8980    -6.0840 c3         1 K85       0.081300
     19 C2           0.1830     7.2500    -5.3800 c3         1 K85      -0.147400
     20 C1           0.1040     8.3570    -6.3990 c          1 K85       0.637100
     21 O           -0.0530     8.0940    -7.5670 o          1 K85      -0.559000
     22 O1'          0.2080     9.6370    -6.0080 os         1 K85      -0.421900
     23 C2'          0.1220    10.6520    -7.0430 c3         1 K85       0.144100
     24 C4'         -1.3380    11.0700    -7.2290 c3         1 K85      -0.103100
     25 C3'          0.9530    11.8700    -6.6330 c3         1 K85      -0.103100
     26 H1           0.2080     1.3480    -2.0120 ha         1 K85       0.170000
     27 H2           3.6900     1.3510     0.4580 ha         1 K85       0.152000
     28 H3           6.3720     3.4060     0.6600 h1         1 K85       0.045367
     29 H4           4.8450     2.8060     1.3210 h1         1 K85       0.045367
     30 H5           5.7410     1.8360     0.1430 h1         1 K85       0.045367
     31 H6           3.2010     4.3780    -2.5260 ha         1 K85       0.166000
     32 H7          -1.7190     3.7210    -5.4370 h5         1 K85       0.073100
     33 H8          -0.9190     5.8560    -6.5900 h1         1 K85       0.080200
     34 H9           0.8350     5.7800    -6.8080 h1         1 K85       0.080200
     35 H10         -0.6140     7.3680    -4.6560 hc         1 K85       0.092200
     36 H11          1.1400     7.2920    -4.8740 hc         1 K85       0.092200
     37 H12          0.5040    10.2520    -7.9740 h1         1 K85       0.070700
     38 H13         -1.8850    10.2650    -7.7040 hc         1 K85       0.047867
     39 H14         -1.3840    11.9550    -7.8510 hc         1 K85       0.047867
     40 H15         -1.7780    11.2850    -6.2620 hc         1 K85       0.047867
     41 H16          0.8650    12.6380    -7.3920 hc         1 K85       0.047867
     42 H17          0.5900    12.2530    -5.6870 hc         1 K85       0.047867
     43 H18          1.9920    11.5800    -6.5310 hc         1 K85       0.047867
@<TRIPOS>BOND
     1     3     2 1
     2    24    23 1
     3    25    23 1
     4    23    22 1
     5     2     5 1
     6     2     4 1
     7     2     1 1
     8     7     5 ar
     9     7     8 ar
    10     9     8 1
    11     9    10 1
    12     5     6 ar
    13     8    11 ar
    14    21    20 2
    15    22    20 1
    16     6    12 ar
    17    11    12 ar
    18    20    19 1
    19    12    13 1
    20    13    14 1
    21    13    16 2
    22    14    15 2
    23    19    18 1
    24    16    17 1
    25    15    17 1
    26    17    18 1
    27     6    26 1
    28     7    27 1
    29    10    28 1
    30    10    29 1
    31    10    30 1
    32    11    31 1
    33    15    32 1
    34    18    33 1
    35    18    34 1
    36    19    35 1
    37    19    36 1
    38    23    37 1
    39    24    38 1
    40    24    39 1
    41    24    40 1
    42    25    41 1
    43    25    42 1
    44    25    43 1
@<TRIPOS>SUBSTRUCTURE
     1 K85         1 TEMP              0 ****  ****    0 ROOT
