@<TRIPOS>MOLECULE
molecule
   68    71     1     0     0
SMALL
bcc


@<TRIPOS>ATOM
      1 C10          0.0000     0.0000     0.0000 ca         1 K86      -0.161000
      2 C15         -1.9330     2.3920     3.5590 ca         1 K86       0.736200
      3 C17         -2.9580     4.5060     3.0840 ca         1 K86       0.707600
      4 C21         -3.9080     2.1050     0.4940 cp         1 K86       0.640000
      5 C24         -5.0450     1.0640    -1.6950 ca         1 K86      -0.372600
      6 C28         -4.0370     6.5370     2.4870 c3         1 K86       0.144400
      7 C1           1.7660     1.2510    -2.1060 c3         1 K86      -0.080767
      8 C2           2.1360    -0.0000    -1.3050 c3         1 K86      -0.032700
      9 C3           1.7660    -1.2490    -2.1070 c3         1 K86      -0.080767
     10 C4           3.6400     0.0000    -1.0240 c3         1 K86      -0.080767
     11 C5           1.3820     0.0000     0.0000 ca         1 K86      -0.013300
     12 C6           2.0730     0.0000     1.1970 ca         1 K86      -0.161000
     13 C7           1.3810    -0.0010     2.3950 ca         1 K86      -0.016500
     14 C8          -0.0020    -0.0020     2.3940 ca         1 K86      -0.320500
     15 C9          -0.6920     0.0060     1.1970 ca         1 K86      -0.016500
     16 S11         -0.8830    -0.0040     3.9200 sy         1 K86       1.420200
     17 O12         -2.1650    -0.5490     3.6410 o          1 K86      -0.618300
     18 O13         -0.0010    -0.5490     4.8920 o          1 K86      -0.618300
     19 N14         -1.1290     1.5770     4.3460 nu         1 K86      -0.837800
     20 C16         -2.1430     3.7300     3.9060 ca         1 K86      -0.199500
     21 N18         -3.5030     3.9540     2.0080 nb         1 K86      -0.797000
     22 C19         -3.2780     2.6830     1.7070 cp         1 K86       0.724000
     23 N20         -2.5090     1.9120     2.4620 nb         1 K86      -0.775000
     24 N22         -4.6810     2.8730    -0.2610 nb         1 K86      -0.691500
     25 C23         -5.2590     2.3900    -1.3480 ca         1 K86       0.452700
     26 C25         -4.2220     0.2920    -0.8880 ca         1 K86       0.452700
     27 N26         -3.6800     0.8360     0.1880 nb         1 K86      -0.691500
     28 O27         -3.1910     5.8100     3.3810 os         1 K86      -0.401100
     29 C29         -4.1820     7.9780     2.9820 c3         1 K86       0.138400
     30 O30         -2.9140     8.6330     2.9180 oh         1 K86      -0.598800
     31 O31         -1.5660     4.2600     5.0180 os         1 K86      -0.206200
     32 C32         -2.2540     4.1900     6.1890 ca         1 K86       0.094100
     33 C33         -3.5040     3.5910     6.2250 ca         1 K86      -0.170000
     34 C34         -4.2020     3.5210     7.4170 ca         1 K86      -0.130000
     35 C35         -3.6570     4.0460     8.5730 ca         1 K86      -0.121000
     36 C36         -2.4100     4.6450     8.5430 ca         1 K86      -0.192000
     37 C37         -1.7020     4.7140     7.3540 ca         1 K86       0.124100
     38 O38         -0.4770     5.3030     7.3240 os         1 K86      -0.313900
     39 C39          0.0210     5.8280     8.5550 c3         1 K86       0.127700
     40 H1          -0.5420     0.0060    -0.9380 ha         1 K86       0.136500
     41 H2          -5.5040     0.6430    -2.5810 ha         1 K86       0.149000
     42 H3          -3.6010     6.5370     1.4960 h1         1 K86       0.062700
     43 H4          -5.0130     6.0680     2.4520 h1         1 K86       0.062700
     44 H5           1.8410     2.1230    -1.4690 hc         1 K86       0.038256
     45 H6           2.4460     1.3560    -2.9440 hc         1 K86       0.038256
     46 H7           0.7520     1.1570    -2.4740 hc         1 K86       0.038256
     47 H8           0.7460    -1.1610    -2.4610 hc         1 K86       0.038256
     48 H9           2.4350    -1.3450    -2.9540 hc         1 K86       0.038256
     49 H10          1.8550    -2.1240    -1.4750 hc         1 K86       0.038256
     50 H11          3.9020    -0.8850    -0.4580 hc         1 K86       0.038256
     51 H12          4.1820     0.0020    -1.9630 hc         1 K86       0.038256
     52 H13          3.9010     0.8840    -0.4550 hc         1 K86       0.038256
     53 H14          3.1560     0.0000     1.1970 ha         1 K86       0.136500
     54 H15          1.9230    -0.0040     3.3330 ha         1 K86       0.168000
     55 H16         -1.7750     0.0060     1.1970 ha         1 K86       0.168000
     56 H17         -0.6750     1.9540     5.1540 hn         1 K86       0.485800
     57 H18         -5.8930     3.0210    -1.9590 h4         1 K86       0.036100
     58 H19         -4.0330    -0.7460    -1.1320 h4         1 K86       0.036100
     59 H20         -4.5350     7.9740     4.0060 h1         1 K86       0.034200
     60 H21         -4.8920     8.5050     2.3560 h1         1 K86       0.034200
     61 H22         -3.0270     9.5540     3.0850 ho         1 K86       0.403000
     62 H23         -3.9340     3.1790     5.3200 ha         1 K86       0.144000
     63 H24         -5.1780     3.0530     7.4440 ha         1 K86       0.135000
     64 H25         -4.2080     3.9910     9.5040 ha         1 K86       0.132000
     65 H26         -1.9840     5.0540     9.4520 ha         1 K86       0.141000
     66 H27         -0.6570     6.5870     8.9250 h1         1 K86       0.040700
     67 H28          0.9990     6.2660     8.3920 h1         1 K86       0.040700
     68 H29          0.1010     5.0290     9.2830 h1         1 K86       0.040700
@<TRIPOS>BOND
     1    39    38 1
     2    30    29 1
     3     6    29 1
     4     6    28 1
     5    38    37 1
     6    28     3 1
     7    37    36 ar
     8    37    32 ar
     9    36    35 ar
    10    31    32 1
    11    31    20 1
    12    32    33 ar
    13    35    34 ar
    14     3    20 ar
    15     3    21 ar
    16    33    34 ar
    17    20     2 ar
    18    21    22 ar
    19     2    19 1
    20     2    23 ar
    21    22    23 ar
    22    22     4 1
    23    19    16 1
    24    27     4 ar
    25    27    26 ar
    26     4    24 ar
    27    26     5 ar
    28    16    17 2
    29    16    18 2
    30    16    14 1
    31    15     1 ar
    32    15    14 ar
    33    24    25 ar
    34     1    11 ar
    35    14    13 ar
    36     5    25 ar
    37    11     8 1
    38    11    12 ar
    39     9     8 1
    40    13    12 ar
    41     7     8 1
    42     8    10 1
    43     1    40 1
    44     5    41 1
    45     6    42 1
    46     6    43 1
    47     7    44 1
    48     7    45 1
    49     7    46 1
    50     9    47 1
    51     9    48 1
    52     9    49 1
    53    10    50 1
    54    10    51 1
    55    10    52 1
    56    12    53 1
    57    13    54 1
    58    15    55 1
    59    19    56 1
    60    25    57 1
    61    26    58 1
    62    29    59 1
    63    29    60 1
    64    30    61 1
    65    33    62 1
    66    34    63 1
    67    35    64 1
    68    36    65 1
    69    39    66 1
    70    39    67 1
    71    39    68 1
@<TRIPOS>SUBSTRUCTURE
     1 K86         1 TEMP              0 ****  ****    0 ROOT
