@<TRIPOS>MOLECULE
molecule
   87    91     1     0     0
SMALL
bcc


@<TRIPOS>ATOM
      1 S1           0.0000     0.0000     0.0000 sy         1 K87       1.420200
      2 C1           1.7620     0.0000     0.0000 ca         1 K87      -0.321500
      3 N1          -0.4900     1.5820    -0.0010 nu         1 K87      -0.839800
      4 O1          -0.4020    -0.5450    -1.2490 o          1 K87      -0.616800
      5 O2          -0.4010    -0.5440     1.2500 o          1 K87      -0.616800
      6 C2           2.4540     0.0000     1.1970 ca         1 K87      -0.016500
      7 C3           2.4530    -0.0070    -1.1980 ca         1 K87      -0.016500
      8 C4          -0.2100     2.3950    -1.0920 ca         1 K87       0.739200
      9 C5           3.8350    -0.0010     1.1970 ca         1 K87      -0.162000
     10 C6           3.8350    -0.0080    -1.1980 ca         1 K87      -0.162000
     11 C7          -0.6190     3.7310    -1.1020 ca         1 K87      -0.204500
     12 N2           0.4540     1.9150    -2.1360 nb         1 K87      -0.775000
     13 C8           4.5260    -0.0010    -0.0010 ca         1 K87      -0.014300
     14 C9          -0.3140     4.5070    -2.2210 ca         1 K87       0.710600
     15 O3          -1.2980     4.2620    -0.0500 os         1 K87      -0.206200
     16 C10          0.7250     2.6840    -3.1810 cp         1 K87       0.727000
     17 C11          6.0340    -0.0020    -0.0020 c3         1 K87      -0.032700
     18 N3           0.3490     3.9550    -3.2280 nb         1 K87      -0.788000
     19 O4          -0.6910     5.8090    -2.2770 os         1 K87      -0.424100
     20 C12         -0.5770     4.8320     0.9510 ca         1 K87       0.094100
     21 C13          1.4700     2.1090    -4.3280 cp         1 K87       0.638000
     22 C14          6.5440     0.0060     1.4410 c3         1 K87      -0.080767
     23 C15          6.5430    -1.2540    -0.7170 c3         1 K87      -0.080767
     24 C16          6.5430     1.2440    -0.7300 c3         1 K87      -0.080767
     25 C17         -0.3400     6.5350    -3.4570 c3         1 K87       0.154400
     26 C18         -1.2280     5.3890     2.0490 ca         1 K87       0.123100
     27 C19          0.8060     4.8570     0.8840 ca         1 K87      -0.171000
     28 N4           1.7430     2.8760    -5.3730 nb         1 K87      -0.689500
     29 N5           1.8520     0.8400    -4.2810 nb         1 K87      -0.689500
     30 C20         -0.8450     7.9740    -3.3390 c3         1 K87      -0.163400
     31 C21         -0.4890     5.9700     3.0680 ca         1 K87      -0.192000
     32 O5          -2.5850     5.3620     2.1220 os         1 K87      -0.314900
     33 C22          1.5380     5.4340     1.9070 ca         1 K87      -0.131000
     34 C23          2.4040     2.3940    -6.4110 ca         1 K87       0.453200
     35 C24          2.5170     0.2960    -5.2840 ca         1 K87       0.453200
     36 C25         -0.4740     8.7400    -4.5830 c          1 K87       0.658100
     37 C26          0.8910     5.9960     2.9920 ca         1 K87      -0.121000
     38 C27         -3.1850     5.9510     3.2780 c3         1 K87       0.127700
     39 C28          2.8140     1.0700    -6.3970 ca         1 K87      -0.372600
     40 N6          -0.8190    10.0380    -4.7040 ns         1 K87      -0.479100
     41 O6           0.1320     8.1880    -5.4760 o          1 K87      -0.585100
     42 C29         -0.4080    10.7700    -5.8230 ca         1 K87       0.048600
     43 C30          0.9330    10.7960    -6.1820 ca         1 K87      -0.080800
     44 C31         -1.3410    11.4670    -6.5800 ca         1 K87      -0.080800
     45 C32          1.3360    11.5200    -7.2880 ca         1 K87      -0.121000
     46 C33          1.9480    10.0380    -5.3670 c3         1 K87      -0.047800
     47 C34         -0.9320    12.1880    -7.6840 ca         1 K87      -0.121000
     48 C35         -2.7980    11.4350    -6.1960 c3         1 K87      -0.047800
     49 C36          0.4050    12.2170    -8.0360 ca         1 K87      -0.129000
     50 H1          -1.0310     1.9380     0.7620 hn         1 K87       0.485800
     51 H2           1.9130     0.0000     2.1360 ha         1 K87       0.169000
     52 H3           1.9110    -0.0130    -2.1360 ha         1 K87       0.169000
     53 H4           4.3770     0.0020     2.1350 ha         1 K87       0.137000
     54 H5           4.3760    -0.0110    -2.1370 ha         1 K87       0.137000
     55 H6           6.1830     0.8940     1.9460 hc         1 K87       0.038256
     56 H7           6.1820    -0.8750     1.9570 hc         1 K87       0.038256
     57 H8           7.6270     0.0060     1.4410 hc         1 K87       0.038256
     58 H9           6.0220    -2.1240    -0.3350 hc         1 K87       0.038256
     59 H10          7.6060    -1.3640    -0.5410 hc         1 K87       0.038256
     60 H11          6.3610    -1.1620    -1.7810 hc         1 K87       0.038256
     61 H12          7.6110     1.3410    -0.5770 hc         1 K87       0.038256
     62 H13          6.3370     1.1530    -1.7900 hc         1 K87       0.038256
     63 H14          6.0420     2.1220    -0.3390 hc         1 K87       0.038256
     64 H15         -0.7950     6.0630    -4.3200 h1         1 K87       0.072200
     65 H16          0.7370     6.5380    -3.5730 h1         1 K87       0.072200
     66 H17          1.3150     4.4170     0.0350 ha         1 K87       0.143000
     67 H18         -0.3910     8.4460    -2.4760 hc         1 K87       0.073700
     68 H19         -1.9220     7.9710    -3.2240 hc         1 K87       0.073700
     69 H20         -0.9930     6.4070     3.9210 ha         1 K87       0.141000
     70 H21          2.6190     5.4550     1.8520 ha         1 K87       0.134000
     71 H22          2.6220     3.0260    -7.2640 h4         1 K87       0.037600
     72 H23          2.8240    -0.7420    -5.2400 h4         1 K87       0.037600
     73 H24          1.4680     6.4480     3.7890 ha         1 K87       0.133000
     74 H25         -4.2620     5.8640     3.2110 h1         1 K87       0.041367
     75 H26         -2.8360     5.4390     4.1670 h1         1 K87       0.041367
     76 H27         -2.9100     6.9980     3.3340 h1         1 K87       0.041367
     77 H28          3.3570     0.6500    -7.2340 ha         1 K87       0.149000
     78 H29         -1.4660    10.4420    -4.0550 hn         1 K87       0.323500
     79 H30          2.3820    11.5430    -7.5680 ha         1 K87       0.133000
     80 H31          2.9060    10.5400    -5.4260 hc         1 K87       0.046033
     81 H32          1.6250     9.9970    -4.3340 hc         1 K87       0.046033
     82 H33          2.0440     9.0310    -5.7560 hc         1 K87       0.046033
     83 H34         -1.6590    12.7340    -8.2730 ha         1 K87       0.133000
     84 H35         -3.1540    10.4120    -6.2140 hc         1 K87       0.046033
     85 H36         -2.9170    11.8410    -5.1990 hc         1 K87       0.046033
     86 H37         -3.3690    12.0290    -6.8980 hc         1 K87       0.046033
     87 H38          0.7230    12.7840    -8.9030 ha         1 K87       0.130000
@<TRIPOS>BOND
     1    33    37 ar
     2    33    27 ar
     3    37    31 ar
     4    27    20 ar
     5    31    26 ar
     6    25    19 1
     7    25    30 1
     8    19    14 1
     9    30    36 1
    10    20    26 ar
    11    20    15 1
    12    35    29 ar
    13    35    39 ar
    14    26    32 1
    15    18    14 ar
    16    18    16 ar
    17    29    21 ar
    18    39    34 ar
    19    14    11 ar
    20    21    16 1
    21    21    28 ar
    22    34    28 ar
    23    16    12 ar
    24    11    15 1
    25    11     8 ar
    26     4     1 2
    27    12     8 ar
    28    36    40 1
    29    36    41 2
    30     8     3 1
    31    32    38 1
    32    40    42 1
    33    48    44 1
    34     3     1 1
    35     1     5 2
    36     1     2 1
    37    42    44 ar
    38    42    43 ar
    39    44    47 ar
    40     7     2 ar
    41     7    10 ar
    42     2     6 ar
    43    46    43 1
    44    10    13 ar
    45    43    45 ar
    46    47    49 ar
    47     6     9 ar
    48    13     9 ar
    49    13    17 1
    50    23    17 1
    51    45    49 ar
    52    22    17 1
    53    17    24 1
    54     3    50 1
    55     6    51 1
    56     7    52 1
    57     9    53 1
    58    10    54 1
    59    22    55 1
    60    22    56 1
    61    22    57 1
    62    23    58 1
    63    23    59 1
    64    23    60 1
    65    24    61 1
    66    24    62 1
    67    24    63 1
    68    25    64 1
    69    25    65 1
    70    27    66 1
    71    30    67 1
    72    30    68 1
    73    31    69 1
    74    33    70 1
    75    34    71 1
    76    35    72 1
    77    37    73 1
    78    38    74 1
    79    38    75 1
    80    38    76 1
    81    39    77 1
    82    40    78 1
    83    45    79 1
    84    46    80 1
    85    46    81 1
    86    46    82 1
    87    47    83 1
    88    48    84 1
    89    48    85 1
    90    48    86 1
    91    49    87 1
@<TRIPOS>SUBSTRUCTURE
     1 K87         1 TEMP              0 ****  ****    0 ROOT
