@<TRIPOS>MOLECULE
K88
   47    50     1     0     0
SMALL
bcc


@<TRIPOS>ATOM
      1 CAC          0.0000     0.0000     0.0000 c3         1 K88       0.265600
      2 NAA          1.4640     0.0000     0.0000 n3         1 K88      -0.535500
      3 CAD          2.1970     0.0000     1.2690 c3         1 K88       0.265600
      4 SAB          2.2930     0.0010    -1.4340 sy         1 K88       1.056200
      5 OAE          3.5760    -0.5440    -1.1570 o          1 K88      -0.589300
      6 OAF          1.4120    -0.5430    -2.4070 o          1 K88      -0.589300
      7 CAG          2.5540     1.6840    -1.8850 ca         1 K88      -0.184500
      8 CAH          3.6910     2.3420    -1.4630 ca         1 K88       0.052000
      9 CAI          3.8930     3.6710    -1.8220 ca         1 K88      -0.115800
     10 CAL          1.6200     2.3430    -2.6670 ca         1 K88       0.027000
     11 CAK          1.8100     3.6620    -3.0290 ca         1 K88      -0.147000
     12 CAJ          2.9470     4.3430    -2.6090 ca         1 K88      -0.067400
     13 NAO          3.3770     5.6460    -2.8260 ns         1 K88       0.011900
     14 CAN          4.5580     5.8770    -2.2270 c          1 K88       0.630700
     15 OAZ          5.1760     6.9270    -2.2450 o          1 K88      -0.690500
     16 CAM          4.9720     4.6440    -1.5460 cc         1 K88      -0.250400
     17 CAP          6.1210     4.4370    -0.8080 cf         1 K88       0.160800
     18 CAQ          7.1240     5.4280    -0.7710 cd         1 K88      -0.376100
     19 CAR          7.9070     5.7650     0.3250 cc         1 K88      -0.103000
     20 CAS          8.7570     6.7870    -0.0830 cc         1 K88      -0.174300
     21 CAV          9.8040     7.4970     0.7400 c3         1 K88       0.078900
     22 CAW         10.7530     8.2310    -0.2150 c3         1 K88      -0.030400
     23 CAX          9.9350     9.0570    -1.2120 c3         1 K88      -0.025400
     24 CAY          9.2190     8.1180    -2.1900 c3         1 K88       0.073900
     25 CAT          8.4950     7.0590    -1.3900 cd         1 K88      -0.301600
     26 NAU          7.5110     6.2380    -1.8210 na         1 K88       0.497900
     27 HAC1        -0.3610     0.0070    -1.0210 h1         1 K88       0.005033
     28 HAC2        -0.3610     0.8810     0.5170 h1         1 K88       0.005033
     29 HAC3        -0.3610    -0.8880     0.5040 h1         1 K88       0.005033
     30 HAD1         1.6950    -0.6500     1.9760 h1         1 K88       0.005033
     31 HAD2         2.2310     1.0070     1.6670 h1         1 K88       0.005033
     32 HAD3         3.2060    -0.3570     1.1040 h1         1 K88       0.005033
     33 HAH          4.4700     1.7980    -0.9420 ha         1 K88       0.124000
     34 HAL          0.7320     1.8180    -2.9990 ha         1 K88       0.122000
     35 HAK          1.0720     4.1660    -3.6410 ha         1 K88       0.111000
     36 HAO          2.8730     6.3260    -3.3600 hn         1 K88       0.177500
     37 HAP          6.2470     3.5180    -0.2490 ha         1 K88       0.108000
     38 HAR          7.9800     5.2070     1.2510 ha         1 K88       0.124000
     39 HAU          7.1330     6.2140    -2.7470 hn         1 K88       0.124700
     40 HAV1         9.3250     8.2130     1.3970 hc         1 K88       0.013700
     41 HAV2        10.3610     6.7740     1.3230 hc         1 K88       0.013700
     42 HAW1        11.3520     7.5060    -0.7530 hc         1 K88       0.013200
     43 HAW2        11.3980     8.8890     0.3550 hc         1 K88       0.013200
     44 HAX1         9.1830     9.6060    -0.6580 hc         1 K88       0.021200
     45 HAX2        10.6210     9.6750    -1.7790 hc         1 K88       0.021200
     46 HAY1         9.9660     7.6310    -2.8040 hc         1 K88       0.020200
     47 HAY2         8.4820     8.6940    -2.7380 hc         1 K88       0.020200
@<TRIPOS>BOND
     1     1     2 1   
     2     1    27 1   
     3     1    28 1   
     4     1    29 1   
     5     2     3 1   
     6     2     4 1   
     7     3    30 1   
     8     3    31 1   
     9     3    32 1   
    10     4     5 2   
    11     4     6 2   
    12     4     7 1   
    13     7     8 ar  
    14     7    10 ar  
    15     8     9 ar  
    16     8    33 1   
    17     9    12 ar  
    18     9    16 1   
    19    10    11 ar  
    20    10    34 1   
    21    11    12 ar  
    22    11    35 1   
    23    12    13 1   
    24    13    14 1   
    25    13    36 1   
    26    14    15 2   
    27    14    16 1   
    28    16    17 2   
    29    17    18 1   
    30    17    37 1   
    31    18    19 2   
    32    18    26 1   
    33    19    20 1   
    34    19    38 1   
    35    20    21 1   
    36    20    25 2   
    37    21    22 1   
    38    21    40 1   
    39    21    41 1   
    40    22    23 1   
    41    22    42 1   
    42    22    43 1   
    43    23    24 1   
    44    23    44 1   
    45    23    45 1   
    46    24    25 1   
    47    24    46 1   
    48    24    47 1   
    49    25    26 1   
    50    26    39 1   
@<TRIPOS>SUBSTRUCTURE
     1 K88         1 TEMP              0 ****  ****    0 ROOT
