@<TRIPOS>MOLECULE
molecule
   47    50     1     0     0
SMALL
bcc


@<TRIPOS>ATOM
      1 CAC          0.0000     0.0000     0.0000 c3         1 K88       0.222600
      2 NAA          1.4640     0.0000     0.0000 n3         1 K88      -0.822500
      3 CAD          2.1970     0.0000     1.2690 c3         1 K88       0.222600
      4 SAB          2.2930     0.0010    -1.4340 sy         1 K88       1.429200
      5 OAE          3.5760    -0.5440    -1.1570 o          1 K88      -0.637800
      6 OAF          1.4120    -0.5430    -2.4070 o          1 K88      -0.637800
      7 CAG          2.5540     1.6840    -1.8850 ca         1 K88      -0.341500
      8 CAH          3.6910     2.3420    -1.4630 ca         1 K88       0.016000
      9 CAI          3.8930     3.6710    -1.8220 ca         1 K88      -0.120800
     10 CAL          1.6200     2.3430    -2.6670 ca         1 K88      -0.001000
     11 CAK          1.8100     3.6620    -3.0290 ca         1 K88      -0.179000
     12 CAJ          2.9470     4.3430    -2.6090 ca         1 K88       0.098600
     13 NAO          3.3770     5.6460    -2.8260 ns         1 K88      -0.451100
     14 CAN          4.5580     5.8770    -2.2270 c          1 K88       0.715700
     15 OAZ          5.1760     6.9270    -2.2450 o          1 K88      -0.626500
     16 CAM          4.9720     4.6440    -1.5460 cc         1 K88      -0.211400
     17 CAP          6.1210     4.4370    -0.8080 cf         1 K88       0.074800
     18 CAQ          7.1240     5.4280    -0.7710 cd         1 K88      -0.158100
     19 CAR          7.9070     5.7650     0.3250 cc         1 K88      -0.133000
     20 CAS          8.7570     6.7870    -0.0830 cc         1 K88      -0.175300
     21 CAV          9.8040     7.4970     0.7400 c3         1 K88      -0.000100
     22 CAW         10.7530     8.2310    -0.2150 c3         1 K88      -0.084400
     23 CAX          9.9350     9.0570    -1.2120 c3         1 K88      -0.076400
     24 CAY          9.2190     8.1180    -2.1900 c3         1 K88      -0.014100
     25 CAT          8.4950     7.0590    -1.3900 cd         1 K88      -0.076600
     26 NAU          7.5110     6.2380    -1.8210 na         1 K88      -0.102100
     27 HAC1        -0.3610     0.8810     0.5170 h1         1 K88       0.045367
     28 HAC2        -0.3610     0.0080    -1.0210 h1         1 K88       0.045367
     29 HAC3        -0.3610    -0.8880     0.5040 h1         1 K88       0.045367
     30 HAD1         3.2070    -0.3540     1.1040 h1         1 K88       0.045367
     31 HAD2         2.2280     1.0070     1.6680 h1         1 K88       0.045367
     32 HAD3         1.6970    -0.6520     1.9750 h1         1 K88       0.045367
     33 HAH          4.4710     1.7970    -0.9430 ha         1 K88       0.153000
     34 HAL          0.7330     1.8180    -3.0010 ha         1 K88       0.153000
     35 HAK          1.0720     4.1660    -3.6410 ha         1 K88       0.138000
     36 HAO          2.8730     6.3260    -3.3610 hn         1 K88       0.343500
     37 HAP          6.2530     3.5130    -0.2600 ha         1 K88       0.151000
     38 HAR          7.9800     5.2070     1.2510 ha         1 K88       0.150000
     39 HAU          7.1350     6.2130    -2.7480 hn         1 K88       0.311700
     40 HAV1        10.3610     6.7740     1.3230 hc         1 K88       0.047200
     41 HAV2         9.3250     8.2130     1.3970 hc         1 K88       0.047200
     42 HAW1        11.3980     8.8890     0.3550 hc         1 K88       0.042700
     43 HAW2        11.3520     7.5060    -0.7530 hc         1 K88       0.042700
     44 HAX1         9.1830     9.6060    -0.6580 hc         1 K88       0.051200
     45 HAX2        10.6210     9.6750    -1.7790 hc         1 K88       0.051200
     46 HAY1         8.4820     8.6940    -2.7380 hc         1 K88       0.056700
     47 HAY2         9.9660     7.6310    -2.8040 hc         1 K88       0.056700
@<TRIPOS>BOND
     1     1     2 1
     2     2     3 1
     3     2     4 1
     4     4     5 2
     5     4     6 2
     6     4     7 1
     7     7     8 ar
     8     7    10 ar
     9     8     9 ar
    10     9    12 ar
    11     9    16 1
    12    10    11 ar
    13    11    12 ar
    14    12    13 1
    15    13    14 1
    16    14    15 2
    17    14    16 1
    18    16    17 2
    19    17    18 1
    20    18    19 2
    21    18    26 1
    22    19    20 1
    23    20    21 1
    24    20    25 2
    25    21    22 1
    26    22    23 1
    27    23    24 1
    28    24    25 1
    29    25    26 1
    30     1    27 1
    31     1    28 1
    32     1    29 1
    33     3    30 1
    34     3    31 1
    35     3    32 1
    36     8    33 1
    37    10    34 1
    38    11    35 1
    39    13    36 1
    40    17    37 1
    41    19    38 1
    42    26    39 1
    43    21    40 1
    44    21    41 1
    45    22    42 1
    46    22    43 1
    47    23    44 1
    48    23    45 1
    49    24    46 1
    50    24    47 1
@<TRIPOS>SUBSTRUCTURE
     1 K88         1 TEMP              0 ****  ****    0 ROOT
