@<TRIPOS>MOLECULE
K89
   45    47     1     0     0
SMALL
bcc


@<TRIPOS>ATOM
      1 C10          0.0000     0.0000     0.0000 ca         1 K89      -0.045400
      2 C12          0.0010    -0.0120     2.4010 ca         1 K89       0.128400
      3 C15          1.3890     0.0000     0.0000 ca         1 K89      -0.147500
      4 O20          0.8290    -2.6430    -6.8740 o          1 K89      -0.574300
      5 C23         -2.4880    -2.7960    -8.7340 c3         1 K89       0.236800
      6 C24         -3.8370    -3.1740    -8.1160 c3         1 K89      -0.067400
      7 C25         -3.7980    -4.6380    -7.6720 c3         1 K89       0.195100
      8 C27         -1.3500    -4.4620    -7.2120 c3         1 K89       0.236800
      9 C01         -2.0460     0.2020    -3.7180 ca         1 K89      -0.008000
     10 C02         -2.6750     0.2890    -4.9410 ca         1 K89      -0.165000
     11 C03         -2.1480    -0.3690    -6.0430 ca         1 K89       0.232900
     12 C04         -0.9870    -1.1160    -5.9210 ca         1 K89      -0.205500
     13 C05         -0.3480    -1.2090    -4.7020 ca         1 K89       0.101000
     14 C06         -0.8720    -0.5450    -3.5910 ca         1 K89      -0.211600
     15 C07         -0.1930    -0.6410    -2.2820 c          1 K89       0.590700
     16 O08          0.8230    -1.3000    -2.1730 o          1 K89      -0.617100
     17 N09         -0.7010    -0.0000    -1.2120 ns         1 K89      -0.037100
     18 C11         -0.6930    -0.0060     1.2030 ca         1 K89      -0.147500
     19 C13          1.3870    -0.0010     2.3990 ca         1 K89       0.037900
     20 C14          2.0800     0.0000     1.1990 ca         1 K89       0.128400
     21 F16          3.4310     0.0000     1.1980 f          1 K89      -0.109400
     22 F17          2.0630    -0.0060     3.5680 f          1 K89      -0.103900
     23 F18         -0.6740    -0.0130     3.5710 f          1 K89      -0.109400
     24 O21         -0.2960    -0.9960    -8.3800 o          1 K89      -0.574300
     25 N22         -1.4230    -3.1060    -7.7720 n3         1 K89      -0.528500
     26 C26         -2.7120    -4.8220    -6.6100 c3         1 K89      -0.067400
     27 F29         -2.7690    -0.2800    -7.2400 f          1 K89      -0.113900
     28 H1           1.9300     0.0010    -0.9380 ha         1 K89       0.145500
     29 H2          -2.4770    -1.7360    -8.9590 h1         1 K89       0.029700
     30 H3          -2.3330    -3.3660    -9.6420 h1         1 K89       0.029700
     31 H4          -4.6210    -3.0410    -8.8520 hc         1 K89       0.027200
     32 H5          -4.0300    -2.5420    -7.2570 hc         1 K89       0.027200
     33 H6          -3.5750    -5.2660    -8.5260 h1         1 K89       0.000700
     34 H7          -1.1040    -5.1660    -7.9990 h1         1 K89       0.029700
     35 H8          -0.5920    -4.4940    -6.4390 h1         1 K89       0.029700
     36 H9          -2.4570     0.7180    -2.8590 ha         1 K89       0.103000
     37 H10         -3.5830     0.8700    -5.0410 ha         1 K89       0.129000
     38 H11          0.5600    -1.7910    -4.6080 ha         1 K89       0.157000
     39 H12         -1.5930     0.4490    -1.2740 hn         1 K89       0.177500
     40 H13         -1.7760    -0.0100     1.2050 ha         1 K89       0.145500
     41 H14         -2.6990    -5.8540    -6.2830 hc         1 K89       0.027200
     42 H15         -2.9170    -4.1720    -5.7680 hc         1 K89       0.027200
     43 S19         -0.3250    -1.9480    -7.3260 sy         1 K89       1.056200
     44 O28         -5.0660    -5.0030    -7.1240 oh         1 K89      -0.586800
     45 H16         -5.4340    -5.7120    -7.6250 ho         1 K89       0.390000
@<TRIPOS>BOND
     1     1     3 ar  
     2     1    17 1   
     3     1    18 ar  
     4     2    18 ar  
     5     2    19 ar  
     6     2    23 1   
     7     3    20 ar  
     8     3    28 1   
     9     4    43 2   
    10     5     6 1   
    11     5    25 1   
    12     5    29 1   
    13     5    30 1   
    14     6     7 1   
    15     6    31 1   
    16     6    32 1   
    17     7    26 1   
    18     7    33 1   
    19     7    44 1   
    20     8    25 1   
    21     8    26 1   
    22     8    34 1   
    23     8    35 1   
    24     9    10 ar  
    25     9    14 ar  
    26     9    36 1   
    27    10    11 ar  
    28    10    37 1   
    29    11    12 ar  
    30    11    27 1   
    31    12    13 ar  
    32    12    43 1   
    33    13    14 ar  
    34    13    38 1   
    35    14    15 1   
    36    15    16 2   
    37    15    17 1   
    38    17    39 1   
    39    18    40 1   
    40    19    20 ar  
    41    19    22 1   
    42    20    21 1   
    43    24    43 2   
    44    25    43 1   
    45    26    41 1   
    46    26    42 1   
    47    44    45 1   
@<TRIPOS>SUBSTRUCTURE
     1 K89         1 TEMP              0 ****  ****    0 ROOT
