@<TRIPOS>MOLECULE
K8A
   16    17     1     0     0
SMALL
bcc


@<TRIPOS>ATOM
      1 C1          0.0170   -0.0110   -0.0390 cc        1 K8A      0.543500
      2 N2          1.7010   -0.0140    1.2450 na        1 K8A      0.103900
      3 N3          1.3900   -0.0000   -0.0540 nd        1 K8A     -0.482800
      4 N4          0.6220   -0.0310    2.0570 nd        1 K8A     -0.140800
      5 N5         -0.4170   -0.0300    1.3330 nc        1 K8A     -0.363000
      6 C6         -0.8720   -0.0030   -1.1850 ca        1 K8A     -0.236800
      7 N7         -1.1250    0.0290   -3.5980 nb        1 K8A     -0.663000
      8 C8         -2.2650   -0.0200   -1.0210 ca        1 K8A     -0.031000
      9 C9         -0.3490    0.0210   -2.5000 ca        1 K8A      0.437200
     10 C10        -3.0770   -0.0130   -2.1600 ca        1 K8A     -0.160200
     11 BR1        -4.9340   -0.0340   -2.0150 br        1 K8A     -0.057100
     12 C12        -2.4590    0.0130   -3.4290 ca        1 K8A      0.437200
     13 H1          2.6480   -0.0110    1.5690 hn        1 K8A      0.356700
     14 H2         -2.7120   -0.0400   -0.0130 ha        1 K8A      0.175000
     15 H3          0.7420    0.0360   -2.6850 h4        1 K8A      0.043100
     16 H4         -3.0600    0.0200   -4.3580 h4        1 K8A      0.040100
@<TRIPOS>BOND
     1    1    3 2   
     2    1    5 1   
     3    1    6 1   
     4    2    3 1   
     5    2    4 1   
     6    2   13 1   
     7    4    5 2   
     8    6    8 ar  
     9    6    9 ar  
    10    7    9 ar  
    11    7   12 ar  
    12    8   10 ar  
    13    8   14 1   
    14    9   15 1   
    15   10   11 1   
    16   10   12 ar  
    17   12   16 1   
@<TRIPOS>SUBSTRUCTURE
     1 K8A         1 TEMP              0 ****  ****    0 ROOT
