@<TRIPOS>MOLECULE
molecule
   16    17     1     0     0
SMALL
bcc


@<TRIPOS>ATOM
      1 C1           0.0000     0.0000     0.0000 cc         1 K8A       0.574500
      2 N2           1.7110     0.0000     1.2280 na         1 K8A       0.199900
      3 N3           1.3170     0.0000     0.0000 nd         1 K8A      -0.565800
      4 N4           0.6850    -0.0010     2.0050 nd         1 K8A      -0.191800
      5 N5          -0.3850    -0.0010     1.2840 nc         1 K8A      -0.380000
      6 C6          -0.8870     0.0050    -1.1900 ca         1 K8A      -0.235800
      7 N7          -1.1320     0.0180    -3.5330 nb         1 K8A      -0.684000
      8 C8          -2.2760     0.0110    -1.0410 ca         1 K8A      -0.034000
      9 C9          -0.3470     0.0120    -2.4740 ca         1 K8A       0.459200
     10 C10         -3.0600     0.0160    -2.1830 ca         1 K8A      -0.155200
     11 Br1         -4.9460     0.0250    -2.0490 br         1 K8A      -0.072100
     12 C12         -2.4470     0.0170    -3.4240 ca         1 K8A       0.457200
     13 H1           2.6650     0.0000     1.5300 hn         1 K8A       0.373700
     14 H2          -2.7190    -0.2250    -0.0810 ha         1 K8A       0.172000
     15 H3           0.7280     0.0120    -2.6040 h4         1 K8A       0.044100
     16 H4          -3.0560     0.0220    -4.3200 h4         1 K8A       0.039100
@<TRIPOS>BOND
     1    11    10 1
     2    10     8 ar
     3    10    12 ar
     4     8     6 ar
     5    12     7 ar
     6     6     1 1
     7     6     9 ar
     8     5     1 1
     9     5     4 2
    10     7     9 ar
    11     1     3 2
    12     4     2 1
    13     3     2 1
    14     2    13 1
    15     8    14 1
    16     9    15 1
    17    12    16 1
@<TRIPOS>SUBSTRUCTURE
     1 K8A         1 TEMP              0 ****  ****    0 ROOT
