@<TRIPOS>MOLECULE
molecule
   31    30     1     0     0
SMALL
bcc


@<TRIPOS>ATOM
      1 O1'          0.0000     0.0000     0.0000 oh         1 K8P      -0.638800
      2 C1'          1.4290     0.0000     0.0000 c3         1 K8P       0.353300
      3 C2'          1.9390    -1.2490    -0.7220 c3         1 K8P       0.141100
      4 O'           3.3630    -1.3080    -0.6200 oh         1 K8P      -0.603800
      5 C3'          1.5340    -1.1870    -2.1960 c3         1 K8P       0.207400
      6 O4P          1.9090    -2.4040    -2.8440 os         1 K8P      -0.573200
      7 P            1.6350    -2.6870    -4.4050 p5         1 K8P       1.180900
      8 O2P          2.2300    -1.6010    -5.2150 o          1 K8P      -0.909833
      9 O1P          2.3000    -4.0930    -4.8210 o          1 K8P      -0.909833
     10 O3P          0.0470    -2.7450    -4.6690 o          1 K8P      -0.909833
     11 N2N          1.9180     0.0000     1.3850 n7         1 K8P      -0.783200
     12 C2           2.2060     1.3660     1.8430 c3         1 K8P       0.070500
     13 C1           0.9210     2.0100     2.3660 c3         1 K8P      -0.124100
     14 C3           3.2310     1.3210     2.9460 c          1 K8P       0.567300
     15 O3O          3.4780     0.2710     3.5020 o          1 K8P      -0.510100
     16 C4           3.9290     2.5430     3.3460 ce         1 K8P      -0.249200
     17 C5           4.8370     2.5030     4.3230 c2         1 K8P      -0.162000
     18 H1          -0.3140     0.6680    -0.5860 ho         1 K8P       0.407000
     19 H2           1.7900     0.8850    -0.5110 h2         1 K8P       0.039700
     20 H3           1.5070    -2.1310    -0.2650 h1         1 K8P       0.045700
     21 H4           3.6270    -2.1860    -0.4020 ho         1 K8P       0.406000
     22 H5           2.0370    -0.3540    -2.6740 h1         1 K8P       0.016200
     23 H6           0.4620    -1.0520    -2.2710 h1         1 K8P       0.016200
     24 H9           1.2300    -0.4140     1.9820 hn         1 K8P       0.366800
     25 H11          2.5910     1.9500     1.0160 h1         1 K8P       0.078700
     26 H12          1.0550     2.2920     3.4030 hc         1 K8P       0.038700
     27 H13          0.6950     2.8920     1.7790 hc         1 K8P       0.038700
     28 H14          0.1040     1.3030     2.2850 hc         1 K8P       0.038700
     29 H15          3.7080     3.4800     2.8500 ha         1 K8P       0.126000
     30 H16          5.3540     3.4080     4.6200 ha         1 K8P       0.118000
     31 H17          5.0580     1.5660     4.8200 ha         1 K8P       0.118000
@<TRIPOS>BOND
     1    17    16 2
     2    15    14 2
     3    16    14 1
     4    14    12 1
     5    13    12 1
     6    12    11 1
     7    11     2 1
     8     5     6 1
     9     5     3 1
    10     2     3 1
    11     2     1 1
    12     6     7 1
    13     8     7 1
    14     3     4 1
    15     7    10 1
    16     7     9 1
    17     1    18 1
    18     2    19 1
    19     3    20 1
    20     4    21 1
    21     5    22 1
    22     5    23 1
    23    11    24 1
    24    12    25 1
    25    13    26 1
    26    13    27 1
    27    13    28 1
    28    16    29 1
    29    17    30 1
    30    17    31 1
@<TRIPOS>SUBSTRUCTURE
     1 K8P         1 TEMP              0 ****  ****    0 ROOT
