@<TRIPOS>MOLECULE
K8X
   15    16     1     0     0
SMALL
bcc


@<TRIPOS>ATOM
      1 C1         -0.0360    0.0020   -0.0340 ca        1 K8X      0.047900
      2 C2          1.3600    0.0020   -0.0110 ca        1 K8X     -0.042200
      3 C3          2.0960    0.0000    1.2490 ca        1 K8X      0.097400
      4 C4          1.3920   -0.0010    2.4560 ca        1 K8X      0.115900
      5 C5          0.0020   -0.0010    2.4080 ca        1 K8X      0.039900
      6 C6         -0.6970    0.0010    1.1890 ca        1 K8X      0.080900
      7 I13        -1.0630    0.0040   -1.7680 i         1 K8X     -0.102900
      8 I15        -2.7160    0.0010    1.2120 i         1 K8X     -0.085900
      9 I17        -1.0450   -0.0020    4.1330 i         1 K8X     -0.086900
     10 I19         2.3510   -0.0030    4.2300 i         1 K8X     -0.076900
     11 N21         2.3290    0.0020   -1.0160 na        1 K8X     -0.279300
     12 C23         3.5770    0.0010   -0.3630 cc        1 K8X      0.439700
     13 N25         3.4800    0.0000    0.9750 nd        1 K8X     -0.549100
     14 H23         4.5200    0.0020   -0.9260 h5        1 K8X      0.079800
     15 HN21        2.1630    0.0030   -1.9880 hn        1 K8X      0.319700
@<TRIPOS>BOND
     1    1    2 ar  
     2    1    6 ar  
     3    1    7 1   
     4    2    3 ar  
     5    2   11 1   
     6    3    4 ar  
     7    3   13 1   
     8    4    5 ar  
     9    4   10 1   
    10    5    6 ar  
    11    5    9 1   
    12    6    8 1   
    13   11   12 1   
    14   11   15 1   
    15   12   13 2   
    16   12   14 1   
@<TRIPOS>SUBSTRUCTURE
     1 K8X         1 TEMP              0 ****  ****    0 ROOT
