@<TRIPOS>MOLECULE
molecule
   15    16     1     0     0
SMALL
bcc


@<TRIPOS>ATOM
      1 C1           0.0000     0.0000     0.0000 ca         1 K8X       0.086900
      2 C2           1.3890     0.0000     0.0000 ca         1 K8X      -0.068200
      3 C3           2.0900     0.0000     1.2180 ca         1 K8X       0.119400
      4 C4           1.3790    -0.0010     2.4220 ca         1 K8X       0.141900
      5 C5           0.0020    -0.0010     2.4020 ca         1 K8X       0.072900
      6 C6          -0.6860     0.0000     1.1970 ca         1 K8X       0.102900
      7 I13         -1.0500     0.0090    -1.8130 i          1 K8X      -0.138900
      8 I15         -2.7810     0.0000     1.1940 i          1 K8X      -0.106900
      9 I17         -1.0620    -0.0020     4.2070 i          1 K8X      -0.108900
     10 I19          2.4060    -0.0020     4.2480 i          1 K8X      -0.105900
     11 N21          2.3490     0.0010    -0.9920 na         1 K8X      -0.259300
     12 C23          3.5640     0.0020    -0.3790 cc         1 K8X       0.449700
     13 N25          3.4130     0.0010     0.9130 nd         1 K8X      -0.588100
     14 H23          4.5180     0.0030    -0.8920 h5         1 K8X       0.084800
     15 HN21         2.1820     0.0010    -1.9790 hn         1 K8X       0.316700
@<TRIPOS>BOND
     1     7     1 1
     2     2     1 ar
     3     1     6 ar
     4    11     2 1
     5     2     3 ar
     6    13     3 1
     7     3     4 ar
     8     4     5 ar
     9     4    10 1
    10     6     5 ar
    11     5     9 1
    12     6     8 1
    13    12    11 1
    14    12    13 2
    15    12    14 1
    16    11    15 1
@<TRIPOS>SUBSTRUCTURE
     1 K8X         1 TEMP              0 ****  ****    0 ROOT
