@<TRIPOS>MOLECULE
K91
   29    31     1     0     0
SMALL
bcc


@<TRIPOS>ATOM
      1 C1         -0.0810    0.4770    0.3940 ca        1 K91      0.156100
      2 C2          1.2860    0.7740    0.2580 ca        1 K91     -0.151000
      3 C3          2.1880    0.3230    1.2140 ca        1 K91     -0.095000
      4 C4          1.7400   -0.4260    2.3090 ca        1 K91     -0.011600
      5 C5          0.3880   -0.7400    2.4590 ca        1 K91     -0.107000
      6 C6         -0.5160   -0.2910    1.4930 ca        1 K91      0.023100
      7 O7         -1.8590   -0.6740    1.5120 os        1 K91     -0.254200
      8 C8         -2.5690   -0.2720    2.6430 ca        1 K91      0.050800
      9 C9         -3.0930   -1.2640    3.4470 ca        1 K91     -0.122000
     10 C10        -3.9210   -0.9280    4.5370 ca        1 K91     -0.112000
     11 C11        -4.1990    0.3930    4.8170 ca        1 K91      0.028400
     12 C12        -3.6730    1.4420    4.0140 ca        1 K91     -0.132300
     13 C13        -2.8450    1.1160    2.8930 ca        1 K91      0.385600
     14 N14        -2.3200    2.0870    2.0630 nb        1 K91     -0.664000
     15 C15        -2.5920    3.3510    2.3340 ca        1 K91      0.424200
     16 C16        -3.3990    3.7760    3.4360 ca        1 K91     -0.242300
     17 C17        -3.9330    2.8220    4.2640 ca        1 K91     -0.074000
     18 CL18       -5.1930    0.7570    6.1510 cl        1 K91     -0.083400
     19 O19        -0.9270    0.9250   -0.5830 oh        1 K91     -0.487100
     20 CL20        2.8560   -0.9650    3.4740 cl        1 K91     -0.094400
     21 H2          1.6230    1.3650   -0.6060 ha        1 K91      0.157000
     22 H3          3.2580    0.5590    1.1080 ha        1 K91      0.150000
     23 H5          0.0270   -1.3280    3.3150 ha        1 K91      0.156000
     24 H9         -2.8740   -2.3220    3.2310 ha        1 K91      0.160000
     25 H10        -4.3340   -1.7370    5.1600 ha        1 K91      0.156000
     26 H15        -2.1560    4.1020    1.6490 h4        1 K91      0.031100
     27 H16        -3.5750    4.8480    3.5960 ha        1 K91      0.151000
     28 H17        -4.5630    3.1050    5.1230 ha        1 K91      0.154000
     29 HO19       -1.8380    0.7860   -0.2740 ho        1 K91      0.446000
@<TRIPOS>BOND
     1    1    2 ar  
     2    1    6 ar  
     3    1   19 1   
     4    2    3 ar  
     5    2   21 1   
     6    3    4 ar  
     7    3   22 1   
     8    4    5 ar  
     9    4   20 1   
    10    5    6 ar  
    11    5   23 1   
    12    6    7 1   
    13    7    8 1   
    14    8    9 ar  
    15    8   13 ar  
    16    9   10 ar  
    17    9   24 1   
    18   10   11 ar  
    19   10   25 1   
    20   11   12 ar  
    21   11   18 1   
    22   12   13 ar  
    23   12   17 ar  
    24   13   14 ar  
    25   14   15 ar  
    26   15   16 ar  
    27   15   26 1   
    28   16   17 ar  
    29   16   27 1   
    30   17   28 1   
    31   19   29 1   
@<TRIPOS>SUBSTRUCTURE
     1 K91         1 TEMP              0 ****  ****    0 ROOT
