@<TRIPOS>MOLECULE
molecule
   29    31     1     0     0
SMALL
bcc


@<TRIPOS>ATOM
      1 C1           0.0000     0.0000     0.0000 ca         1 K91       0.089100
      2 C2           1.3850     0.0000     0.0000 ca         1 K91      -0.129000
      3 C3           2.0760     0.0000     1.1970 ca         1 K91      -0.141000
      4 C4           1.3890    -0.0010     2.3970 ca         1 K91       0.052400
      5 C5           0.0050     0.0000     2.4040 ca         1 K91      -0.191000
      6 C6          -0.6930    -0.0010     1.2070 ca         1 K91       0.141100
      7 O7          -2.0530    -0.0000     1.2120 os         1 K91      -0.213200
      8 C8          -2.6860     0.1100     2.4090 ca         1 K91       0.060800
      9 C9          -3.0860    -1.0100     3.0800 ca         1 K91      -0.123000
     10 C10         -3.7380    -0.9170     4.3070 ca         1 K91      -0.115000
     11 C11         -3.9940     0.2960     4.8730 ca         1 K91       0.045400
     12 C12         -3.5970     1.4710     4.2130 ca         1 K91      -0.149300
     13 C13         -2.9300     1.3830     2.9670 ca         1 K91       0.410600
     14 N14         -2.5460     2.4960     2.3380 nb         1 K91      -0.659000
     15 C15         -2.7680     3.6810     2.8520 ca         1 K91       0.441200
     16 C16         -3.4150     3.8390     4.0770 ca         1 K91      -0.249300
     17 C17         -3.8440     2.7410     4.7670 ca         1 K91      -0.074000
     18 Cl18        -4.8070     0.3870     6.4040 cl         1 K91      -0.096400
     19 O19         -0.6820     0.0050    -1.1770 oh         1 K91      -0.497100
     20 Cl20         2.2630    -0.0010     3.8970 cl         1 K91      -0.105400
     21 H2           1.9270     0.0010    -0.9380 ha         1 K91       0.149000
     22 H3           3.1600    -0.0000     1.1950 ha         1 K91       0.147000
     23 H5          -0.5320    -0.0000     3.3450 ha         1 K91       0.157000
     24 H9          -2.8940    -1.9860     2.6510 ha         1 K91       0.154000
     25 H10         -4.0450    -1.8210     4.8190 ha         1 K91       0.152000
     26 H15         -2.4330     4.5610     2.3160 h4         1 K91       0.030100
     27 H16         -3.5840     4.8310     4.4770 ha         1 K91       0.143000
     28 H17         -4.3480     2.8440     5.7200 ha         1 K91       0.155000
     29 HO19        -0.5850    -0.8330    -1.5990 ho         1 K91       0.416000
@<TRIPOS>BOND
     1     1     2 ar
     2     1     6 ar
     3     1    19 1
     4     2     3 ar
     5     3     4 ar
     6     4     5 ar
     7     4    20 1
     8     5     6 ar
     9     6     7 1
    10     7     8 1
    11     8     9 ar
    12     8    13 ar
    13     9    10 ar
    14    10    11 ar
    15    11    12 ar
    16    11    18 1
    17    12    13 ar
    18    12    17 ar
    19    13    14 ar
    20    14    15 ar
    21    15    16 ar
    22    16    17 ar
    23     2    21 1
    24     3    22 1
    25     5    23 1
    26     9    24 1
    27    10    25 1
    28    15    26 1
    29    16    27 1
    30    17    28 1
    31    19    29 1
@<TRIPOS>SUBSTRUCTURE
     1 K91         1 TEMP              0 ****  ****    0 ROOT
