@<TRIPOS>MOLECULE
K97
   34    36     1     0     0
SMALL
bcc


@<TRIPOS>ATOM
      1 O1           0.0000     0.0000     0.0000 o          1 K97      -0.886300
      2 C2           1.2150     0.0000     0.0000 c          1 K97       0.974200
      3 C3           1.9530     0.0000     1.2770 ca         1 K97      -0.098600
      4 C4           1.2520    -0.0060     2.4820 ca         1 K97      -0.083000
      5 C5           1.9490    -0.0060     3.6800 ca         1 K97      -0.245200
      6 C6           3.3580    -0.0010     3.6640 ca         1 K97      -0.087800
      7 C7           4.0470     0.0070     2.4460 ca         1 K97      -0.143000
      8 C8           3.3550     0.0010     1.2720 ca         1 K97      -0.073000
      9 C9           3.7780    -0.0020     5.0650 cc         1 K97      -0.164400
     10 C10          5.1950     0.0020     5.5760 c3         1 K97       0.260000
     11 N11          5.7310     1.3690     5.5190 n3         1 K97      -0.536600
     12 C12          7.0190     1.4600     6.2240 c3         1 K97       0.095300
     13 C13          7.5100     2.9100     6.1920 c3         1 K97       0.213900
     14 O14          7.6050     3.3450     4.8340 os         1 K97      -0.423600
     15 C15          6.3700     3.2710     4.1170 c3         1 K97       0.213900
     16 C16          5.8660     1.8250     4.1280 c3         1 K97       0.095300
     17 C17          2.6590    -0.0090     5.8110 cd         1 K97      -0.268100
     18 N18          1.5580    -0.0110     5.0020 na         1 K97       0.330600
     19 O19          1.8890    -0.0050    -1.1670 o          1 K97      -0.886300
     20 H1           0.1700    -0.0520     2.4710 ha         1 K97       0.120000
     21 H2           4.9740    -0.5250     2.2680 ha         1 K97       0.098000
     22 H3           3.8660    -0.0540     0.3190 ha         1 K97       0.133000
     23 H4           5.2110    -0.3490     6.6000 h1         1 K97      -0.000300
     24 H5           5.8030    -0.6500     4.9600 h1         1 K97      -0.000300
     25 H6           6.8890     1.1450     7.2530 h1         1 K97       0.026700
     26 H7           8.4850     2.9700     6.6600 h1         1 K97       0.007450
     27 H8           6.5270     3.5900     3.0940 h1         1 K97       0.007450
     28 H9           5.6370     3.9120     4.5940 h1         1 K97       0.007450
     29 H10          4.9020     1.7750     3.6370 h1         1 K97       0.026700
     30 H11          6.5760     1.1920     3.6090 h1         1 K97       0.026700
     31 H12          2.5040    -0.1270     6.8770 h4         1 K97       0.119000
     32 H13          0.6100    -0.0480     5.3190 hn         1 K97       0.106700
     33 H15          7.7440     0.8220     5.7340 h1         1 K97       0.026700
     34 H16          6.8080     3.5400     6.7240 h1         1 K97       0.007450
@<TRIPOS>BOND
     1     1     2 1   
     2     2     3 1   
     3     2    19 1   
     4     3     4 ar  
     5     3     8 ar  
     6     4     5 ar  
     7     4    20 1   
     8     5     6 ar  
     9     5    18 1   
    10     6     7 ar  
    11     6     9 1   
    12     7     8 ar  
    13     7    21 1   
    14     8    22 1   
    15     9    10 1   
    16     9    17 2   
    17    10    11 1   
    18    10    23 1   
    19    10    24 1   
    20    11    12 1   
    21    11    16 1   
    22    12    13 1   
    23    12    25 1   
    24    12    33 1   
    25    13    14 1   
    26    13    26 1   
    27    13    34 1   
    28    14    15 1   
    29    15    16 1   
    30    15    27 1   
    31    15    28 1   
    32    16    29 1   
    33    16    30 1   
    34    17    18 1   
    35    17    31 1   
    36    18    32 1   
@<TRIPOS>SUBSTRUCTURE
     1 K97         1 TEMP              0 ****  ****    0 ROOT
