@<TRIPOS>MOLECULE
molecule
   34    36     1     0     0
SMALL
bcc


@<TRIPOS>ATOM
      1 O1           0.0000     0.0000     0.0000 o          1 K97      -0.837300
      2 C2           1.2150     0.0000     0.0000 c          1 K97       0.882200
      3 C3           1.9530     0.0000     1.2770 ca         1 K97      -0.091600
      4 C4           1.2520    -0.0060     2.4820 ca         1 K97      -0.124000
      5 C5           1.9490    -0.0060     3.6800 ca         1 K97      -0.060200
      6 C6           3.3580    -0.0010     3.6640 ca         1 K97      -0.100800
      7 C7           4.0470     0.0070     2.4460 ca         1 K97      -0.157000
      8 C8           3.3550     0.0010     1.2720 ca         1 K97      -0.108000
      9 C9           3.7780    -0.0020     5.0650 cc         1 K97      -0.158400
     10 C10          5.1950     0.0020     5.5760 c3         1 K97       0.248000
     11 N11          5.7310     1.3690     5.5190 n3         1 K97      -0.724600
     12 C12          7.0190     1.4600     6.2240 c3         1 K97       0.120300
     13 C13          7.5100     2.9100     6.1920 c3         1 K97       0.138900
     14 O14          7.6050     3.3450     4.8340 os         1 K97      -0.437600
     15 C15          6.3700     3.2710     4.1170 c3         1 K97       0.138900
     16 C16          5.8660     1.8250     4.1280 c3         1 K97       0.120300
     17 C17          2.6590    -0.0090     5.8110 cd         1 K97      -0.102100
     18 N18          1.5580    -0.0110     5.0020 na         1 K97      -0.195400
     19 O19          1.8890    -0.0050    -1.1670 o          1 K97      -0.837300
     20 H1           0.1700    -0.0520     2.4710 ha         1 K97       0.145000
     21 H2           4.9740    -0.5250     2.2680 ha         1 K97       0.117000
     22 H3           3.8660    -0.0540     0.3190 ha         1 K97       0.158000
     23 H4           5.2110    -0.3490     6.6000 h1         1 K97       0.028700
     24 H5           5.8030    -0.6500     4.9600 h1         1 K97       0.028700
     25 H6           6.8890     1.1450     7.2530 h1         1 K97       0.048200
     26 H7           8.4850     2.9700     6.6600 h1         1 K97       0.046950
     27 H8           6.5270     3.5900     3.0940 h1         1 K97       0.046950
     28 H9           5.6370     3.9120     4.5940 h1         1 K97       0.046950
     29 H10          4.9020     1.7750     3.6370 h1         1 K97       0.048200
     30 H11          6.5760     1.1920     3.6090 h1         1 K97       0.048200
     31 H12          2.5040    -0.1270     6.8770 h4         1 K97       0.141000
     32 H13          0.6100    -0.0480     5.3190 hn         1 K97       0.284700
     33 H15          7.7440     0.8220     5.7340 h1         1 K97       0.048200
     34 H16          6.8080     3.5400     6.7240 h1         1 K97       0.046950
@<TRIPOS>BOND
     1     1     2 1
     2    19     2 1
     3     2     3 1
     4     3     8 ar
     5     3     4 ar
     6     8     7 ar
     7     4     5 ar
     8     7     6 ar
     9     5     6 ar
    10     5    18 1
    11     6     9 1
    12    18    17 1
    13     9    10 1
    14     9    17 2
    15    10    11 1
    16    16    11 1
    17    16    15 1
    18    11    12 1
    19    15    14 1
    20    12    13 1
    21    14    13 1
    22     4    20 1
    23     7    21 1
    24     8    22 1
    25    10    23 1
    26    10    24 1
    27    12    25 1
    28    13    26 1
    29    15    27 1
    30    15    28 1
    31    16    29 1
    32    16    30 1
    33    17    31 1
    34    18    32 1
    35    12    33 1
    36    13    34 1
@<TRIPOS>SUBSTRUCTURE
     1 K97         1 TEMP              0 ****  ****    0 ROOT
