@<TRIPOS>MOLECULE
K99
   32    32     1     0     0
SMALL
bcc


@<TRIPOS>ATOM
      1 O1A        -0.4310   -0.0630    0.1080 o         1 K99     -0.794300
      2 C1          0.8140   -0.0140   -0.0510 c         1 K99      0.911600
      3 O1B         1.4370    0.0190   -1.1390 o         1 K99     -0.794300
      4 C2          1.6980    0.0530    1.2650 c3        1 K99      0.218100
      5 C3          2.9320    0.9860    1.0150 c3        1 K99      0.084600
      6 F1          3.9400    0.7970    1.9470 f         1 K99     -0.254300
      7 C4          2.4730    2.4590    1.0050 c3        1 K99      0.081100
      8 O4          3.5670    3.3570    0.9420 oh        1 K99     -0.608800
      9 O6          0.9490    0.4780    2.4110 os        1 K99     -0.429600
     10 C6          0.4350    1.8000    2.2770 c3        1 K99      0.112100
     11 C5          1.6330    2.7620    2.2560 c3        1 K99      0.074100
     12 O5          1.1540    4.0960    2.2740 oh        1 K99     -0.614800
     13 C7         -0.5430    2.0580    3.4330 c3        1 K99      0.130100
     14 O7          0.0990    2.4360    4.6400 oh        1 K99     -0.605800
     15 C8         -1.3670    0.7940    3.7410 c3        1 K99      0.123100
     16 O8         -2.0880    0.3780    2.5970 oh        1 K99     -0.640800
     17 C9         -2.4150    1.0930    4.8170 c3        1 K99      0.139400
     18 O9         -3.2130   -0.0410    5.0980 oh        1 K99     -0.620800
     19 F2          2.0960   -1.1860    1.7030 f         1 K99     -0.218300
     20 H3          3.3370    0.7220   -0.0070 h1        1 K99      0.112700
     21 H4          1.8780    2.6510    0.0680 h1        1 K99      0.116700
     22 HA          4.2150    3.0630    1.5950 ho        1 K99      0.406000
     23 H5          2.2700    2.6010    3.1730 h1        1 K99      0.053700
     24 H6         -0.1420    1.8870    1.3090 h1        1 K99      0.097700
     25 H7         -1.2270    2.8920    3.1020 h1        1 K99      0.045700
     26 HB          1.7980    4.6310    1.7920 ho        1 K99      0.415000
     27 HC          0.5830    3.2490    4.4460 ho        1 K99      0.407000
     28 H8         -0.6750   -0.0230    4.0880 h1        1 K99      0.074700
     29 HD         -1.4400    0.0840    1.9280 ho        1 K99      0.471000
     30 H91C       -3.0740    1.9390    4.4860 h1        1 K99      0.043200
     31 H92C       -1.9060    1.3550    5.7810 h1        1 K99      0.043200
     32 H9         -3.4560   -0.4290    4.2460 ho        1 K99      0.418000
@<TRIPOS>BOND
     1    1    2 1   
     2    2    3 1   
     3    2    4 1   
     4    4    5 1   
     5    4    9 1   
     6    4   19 1   
     7    5    6 1   
     8    5    7 1   
     9    5   20 1   
    10    7    8 1   
    11    7   11 1   
    12    7   21 1   
    13    8   22 1   
    14    9   10 1   
    15   10   11 1   
    16   10   13 1   
    17   10   24 1   
    18   11   12 1   
    19   11   23 1   
    20   12   26 1   
    21   13   14 1   
    22   13   15 1   
    23   13   25 1   
    24   14   27 1   
    25   15   16 1   
    26   15   17 1   
    27   15   28 1   
    28   16   29 1   
    29   17   18 1   
    30   17   30 1   
    31   17   31 1   
    32   18   32 1   
@<TRIPOS>SUBSTRUCTURE
     1 K99         1 TEMP              0 ****  ****    0 ROOT
