@<TRIPOS>MOLECULE
molecule
   32    32     1     0     0
SMALL
bcc


@<TRIPOS>ATOM
      1 O1A          0.0000     0.0000     0.0000 o          1 K99      -0.809800
      2 C1           1.2080     0.0000     0.0000 c          1 K99       0.853600
      3 O1B          1.8790     0.0050    -1.1620 o          1 K99      -0.809800
      4 C2           1.9620     0.0000     1.3050 c3         1 K99       0.256100
      5 C3           3.1230     0.9950     1.2240 c3         1 K99       0.119600
      6 F1           3.8540     0.9580     2.4160 f          1 K99      -0.252300
      7 C4           2.5630     2.4050     1.0100 c3         1 K99       0.099100
      8 O4           3.6350     3.3500     1.0070 oh         1 K99      -0.615800
      9 O6           1.0820     0.3820     2.3640 os         1 K99      -0.418600
     10 C6           0.4910     1.6720     2.1940 c3         1 K99       0.164100
     11 C5           1.5930     2.7350     2.1490 c3         1 K99       0.102100
     12 O5           1.0090     4.0190     1.9220 oh         1 K99      -0.613800
     13 C7          -0.4490     1.9610     3.3670 c3         1 K99       0.165100
     14 O7           0.3100     2.0490     4.5740 oh         1 K99      -0.596800
     15 C8          -1.4740     0.8320     3.4890 c3         1 K99       0.144100
     16 O8          -2.2320     0.7440     2.2810 oh         1 K99      -0.584800
     17 C9          -2.4130     1.1210     4.6610 c3         1 K99       0.097400
     18 O9          -3.2960     0.0140     4.8490 oh         1 K99      -0.612800
     19 F2           2.4640    -1.2820     1.5540 f          1 K99      -0.218300
     20 H3           3.7650     0.7320     0.3920 h1         1 K99       0.093700
     21 H4           2.0360     2.4440     0.0640 h1         1 K99       0.090700
     22 HA           3.7830     3.6540     0.1270 ho         1 K99       0.400000
     23 H5           2.1290     2.7370     3.0900 h1         1 K99       0.063700
     24 H6          -0.0660     1.6930     1.2650 h1         1 K99       0.121700
     25 H7          -0.9640     2.8990     3.1950 h1         1 K99       0.050700
     26 HB           1.5070     4.6760     2.3790 ho         1 K99       0.396000
     27 HC           0.1040     2.8560     5.0170 ho         1 K99       0.384000
     28 H8          -0.9590    -0.1050     3.6610 h1         1 K99       0.082700
     29 HD          -2.7010    -0.0740     2.2630 ho         1 K99       0.416000
     30 H91C        -1.8310     1.2740     5.5620 h1         1 K99       0.021200
     31 H92C        -2.9920     2.0120     4.4490 h1         1 K99       0.021200
     32 H9          -3.8240     0.1590     5.6160 ho         1 K99       0.391000
@<TRIPOS>BOND
     1     3     2 1
     2     2     1 1
     3     2     4 1
     4     4     5 1
     5     4     9 1
     6     4    19 1
     7     5     6 1
     8     5     7 1
     9     7     8 1
    10     7    11 1
    11     9    10 1
    12    10    11 1
    13    10    13 1
    14    11    12 1
    15    13    14 1
    16    13    15 1
    17    15    16 1
    18    15    17 1
    19    17    18 1
    20     5    20 1
    21     7    21 1
    22     8    22 1
    23    11    23 1
    24    10    24 1
    25    13    25 1
    26    12    26 1
    27    14    27 1
    28    15    28 1
    29    16    29 1
    30    17    30 1
    31    17    31 1
    32    18    32 1
@<TRIPOS>SUBSTRUCTURE
     1 K99         1 TEMP              0 ****  ****    0 ROOT
