@<TRIPOS>MOLECULE
K9A
   49    52     1     0     0
SMALL
bcc


@<TRIPOS>ATOM
      1 N7           0.0000     0.0000     0.0000 nv         1 K9A      -0.535500
      2 C17          1.3870     0.0000     0.0000 ca         1 K9A       0.714900
      3 N4           2.0310     0.0000     1.1570 nb         1 K9A      -0.677000
      4 C16          3.3560    -0.0000     1.2000 ca         1 K9A       0.451200
      5 N5           2.0310    -0.0070    -1.1570 nb         1 K9A      -0.689000
      6 C18          3.3590    -0.0120    -1.1940 ca         1 K9A       0.594200
      7 N6           4.0300    -0.0130    -2.4080 nv         1 K9A      -0.642500
      8 C15          4.0710    -0.0020     0.0130 ca         1 K9A      -0.300000
      9 N3           5.4750    -0.0070     0.0200 nh         1 K9A      -0.375000
     10 C12          6.0040     1.2280     0.6140 c3         1 K9A       0.143800
     11 C11          7.5330     1.2180     0.5310 c3         1 K9A       0.136300
     12 C13          5.9940    -1.1900     0.7220 c3         1 K9A       0.143800
     13 C14          7.5220    -1.2000     0.6380 c3         1 K9A       0.136300
     14 N2           8.0510     0.0350     1.2320 nh         1 K9A      -0.365000
     15 C9           9.4480     0.0300     1.2390 ca         1 K9A       0.031600
     16 C8          10.1500     1.0650     0.6330 ca         1 K9A      -0.164000
     17 C7          11.5320     1.0620     0.6380 ca         1 K9A      -0.065000
     18 C6          12.2230     0.0320     1.2440 ca         1 K9A      -0.126000
     19 C10         10.1340    -1.0060     1.8540 ca         1 K9A      -0.127000
     20 C5          11.5270    -1.0100     1.8530 cp         1 K9A       0.000000
     21 C3          12.2680    -2.1190     2.5040 cp         1 K9A      -0.278600
     22 C2          11.5880    -3.1770     3.1140 ca         1 K9A       0.441700
     23 N           12.2870    -4.1440     3.6820 nb         1 K9A      -0.618000
     24 C4          13.6650    -2.1390     2.5170 ca         1 K9A       0.441700
     25 N1          14.2850    -3.1460     3.1080 nb         1 K9A      -0.618000
     26 C1          13.6050    -4.1200     3.6770 ca         1 K9A       0.593300
     27 C           14.3580    -5.2480     4.3380 c3         1 K9A      -0.031400
     28 H1          -0.5000     0.5180    -0.6950 hn         1 K9A       0.275800
     29 H2          -0.5000    -0.5250     0.6900 hn         1 K9A       0.275800
     30 H3           3.8730     0.0040     2.1520 h4         1 K9A      -0.010900
     31 H4           4.2990    -0.8790    -2.8300 hn         1 K9A       0.279800
     32 H5           4.1990     0.8500    -2.8860 hn         1 K9A       0.279800
     33 H6           5.7010     1.2860     1.6530 h1         1 K9A       0.019200
     34 H7           5.6190     2.0820     0.0710 h1         1 K9A       0.019200
     35 H8           7.8370     1.1830    -0.5090 h1         1 K9A       0.025200
     36 H9           7.9250     2.1140     0.9970 h1         1 K9A       0.025200
     37 H10          5.6020    -2.0860     0.2560 h1         1 K9A       0.019200
     38 H11          5.6900    -1.1550     1.7610 h1         1 K9A       0.019200
     39 H12          7.8250    -1.2600    -0.4000 h1         1 K9A       0.025200
     40 H13          7.9060    -2.0550     1.1820 h1         1 K9A       0.025200
     41 H14          9.6130     1.8760     0.1570 ha         1 K9A       0.124000
     42 H15         12.0750     1.8710     0.1650 ha         1 K9A       0.103000
     43 H16         13.3060     0.0320     1.2440 ha         1 K9A       0.112000
     44 H17          9.5890    -1.8140     2.3260 ha         1 K9A       0.122000
     45 H18         10.5050    -3.2030     3.1220 h4         1 K9A      -0.007400
     46 H19         14.2310    -1.3410     2.0520 h4         1 K9A      -0.007400
     47 H20         13.9010    -5.4760     5.2930 hc         1 K9A       0.019033
     48 H21         15.3880    -4.9520     4.4920 hc         1 K9A       0.019033
     49 H22         14.3250    -6.1250     3.7030 hc         1 K9A       0.019033
@<TRIPOS>BOND
     1     1     2 1   
     2     1    28 1   
     3     1    29 1   
     4     2     3 ar  
     5     2     5 ar  
     6     3     4 ar  
     7     4     8 ar  
     8     4    30 1   
     9     5     6 ar  
    10     6     7 1   
    11     6     8 ar  
    12     7    31 1   
    13     7    32 1   
    14     8     9 1   
    15     9    10 1   
    16     9    12 1   
    17    10    11 1   
    18    10    33 1   
    19    10    34 1   
    20    11    14 1   
    21    11    35 1   
    22    11    36 1   
    23    12    13 1   
    24    12    37 1   
    25    12    38 1   
    26    13    14 1   
    27    13    39 1   
    28    13    40 1   
    29    14    15 1   
    30    15    16 ar  
    31    15    19 ar  
    32    16    17 ar  
    33    16    41 1   
    34    17    18 ar  
    35    17    42 1   
    36    18    20 ar  
    37    18    43 1   
    38    19    20 ar  
    39    19    44 1   
    40    20    21 1   
    41    21    22 ar  
    42    21    24 ar  
    43    22    23 ar  
    44    22    45 1   
    45    23    26 ar  
    46    24    25 ar  
    47    24    46 1   
    48    25    26 ar  
    49    26    27 1   
    50    27    47 1   
    51    27    48 1   
    52    27    49 1   
@<TRIPOS>SUBSTRUCTURE
     1 K9A         1 TEMP              0 ****  ****    0 ROOT
