@<TRIPOS>MOLECULE
molecule
   54    54     1     0     0
SMALL
bcc


@<TRIPOS>ATOM
      1 CAA          0.0000     0.0000     0.0000 c3         1 K9H      -0.095100
      2 OAB         13.7460     0.4750    13.2340 o          1 K9H      -0.923167
      3 OAC         14.7030     2.4560     8.0780 o          1 K9H      -0.923167
      4 OAD         14.6990     2.9070    12.9330 o          1 K9H      -0.923167
      5 OAE         16.0880     0.8720    12.3780 o          1 K9H      -0.923167
      6 OAF         16.5930     1.8560     9.6400 o          1 K9H      -0.923167
      7 OAG         15.2750     3.9420    10.1710 o          1 K9H      -0.923167
      8 CAH         14.2200    -0.0010     7.5730 ca         1 K9H       0.490200
      9 CAI         12.3670    -0.0010     6.2040 ca         1 K9H       0.282200
     10 CAJ         12.0540    -0.0000     8.5790 ca         1 K9H      -0.151000
     11 CAK          1.5300     0.0000     0.0000 c3         1 K9H      -0.088400
     12 CAL          2.0400     0.0000     1.4430 c3         1 K9H      -0.086400
     13 CAM          3.5700     0.0000     1.4430 c3         1 K9H      -0.084400
     14 CAN          4.0790     0.0000     2.8850 c3         1 K9H      -0.083400
     15 CAO          5.6090    -0.0000     2.8860 c3         1 K9H      -0.083400
     16 CAP          6.1190     0.0000     4.3290 c3         1 K9H      -0.081400
     17 CAQ          7.6490     0.0000     4.3290 c3         1 K9H      -0.081400
     18 CAR          8.1590     0.0000     5.7720 c3         1 K9H      -0.085400
     19 CAS          9.6890     0.0000     5.7720 c3         1 K9H       0.152400
     20 NAU         13.6740    -0.0000     6.3730 nb         1 K9H      -0.739000
     21 OAV         10.1640    -0.0000     7.1190 os         1 K9H      -0.349900
     22 CAW         13.4340     0.0000     8.7100 ca         1 K9H      -0.072600
     23 CAX         11.5120    -0.0000     7.2970 ca         1 K9H      -0.080200
     24 CAY         14.1080     1.4290    10.6210 c3         1 K9H      -0.389100
     25 PAZ         14.7080     1.4090    12.3420 p5         1 K9H       1.123700
     26 PBA         15.2320     2.4370     9.5990 p5         1 K9H       1.123700
     27 HAA         -0.3610    -0.8850     0.5100 hc         1 K9H       0.017367
     28 HAAA        -0.3610     0.8840     0.5110 hc         1 K9H       0.017367
     29 HAAB        -0.3610     0.0000    -1.0210 hc         1 K9H       0.017367
     30 HAH         15.2990    -0.0000     7.6690 h4         1 K9H       0.055100
     31 HAI         11.9550    -0.0010     5.2020 h4         1 K9H      -0.058900
     32 HAJ         11.4130     0.0000     9.4530 ha         1 K9H       0.130000
     33 HAK          1.8910    -0.8850    -0.5110 hc         1 K9H       0.029700
     34 HAKA         1.8910     0.8850    -0.5110 hc         1 K9H       0.029700
     35 HAL          1.6790     0.8850     1.9530 hc         1 K9H       0.032700
     36 HALA         1.6790    -0.8850     1.9530 hc         1 K9H       0.032700
     37 HAM          3.9310    -0.8850     0.9320 hc         1 K9H       0.034200
     38 HAMA         3.9310     0.8850     0.9320 hc         1 K9H       0.034200
     39 HAN          3.7180     0.8850     3.3960 hc         1 K9H       0.036200
     40 HANA         3.7180    -0.8840     3.3960 hc         1 K9H       0.036200
     41 HAO          5.9700     0.8840     2.3750 hc         1 K9H       0.036200
     42 HAOA         5.9700    -0.8850     2.3750 hc         1 K9H       0.036200
     43 HAP          5.7580    -0.8840     4.8400 hc         1 K9H       0.037700
     44 HAPA         5.7580     0.8850     4.8400 hc         1 K9H       0.037700
     45 HAQ          8.0100     0.8850     3.8180 hc         1 K9H       0.036700
     46 HAQA         8.0100    -0.8840     3.8180 hc         1 K9H       0.036700
     47 HAR          7.7980    -0.8840     6.2820 hc         1 K9H       0.043700
     48 HARA         7.7980     0.8850     6.2820 hc         1 K9H       0.043700
     49 HAS         10.0500    -0.8840     5.2610 h1         1 K9H       0.018200
     50 HASA        10.0500     0.8850     5.2610 h1         1 K9H       0.018200
     51 HAT         15.0790    -0.3860    10.0050 hc         1 K9H       0.034200
     52 HATA        13.4900    -0.6240    10.7450 hc         1 K9H       0.034200
     53 HAY         13.1130     1.8550    10.5900 hc         1 K9H       0.030700
     54 CAT         14.0700     0.0010    10.0770 c3         1 K9H       0.025900
@<TRIPOS>BOND
     1    11     1 1
     2     1    27 1
     3     1    28 1
     4     1    29 1
     5     2    25 1
     6    26     3 1
     7    25     4 1
     8     5    25 1
     9     6    26 1
    10    26     7 1
    11     8    20 ar
    12     8    22 ar
    13     8    30 1
    14    20     9 ar
    15     9    23 ar
    16     9    31 1
    17    22    10 ar
    18    10    23 ar
    19    10    32 1
    20    12    11 1
    21    11    33 1
    22    11    34 1
    23    13    12 1
    24    12    35 1
    25    12    36 1
    26    14    13 1
    27    13    37 1
    28    13    38 1
    29    15    14 1
    30    14    39 1
    31    14    40 1
    32    16    15 1
    33    15    41 1
    34    15    42 1
    35    17    16 1
    36    16    43 1
    37    16    44 1
    38    18    17 1
    39    17    45 1
    40    17    46 1
    41    19    18 1
    42    18    47 1
    43    18    48 1
    44    21    19 1
    45    19    49 1
    46    19    50 1
    47    54    24 1
    48    54    22 1
    49    54    51 1
    50    54    52 1
    51    23    21 1
    52    25    24 1
    53    26    24 1
    54    24    53 1
@<TRIPOS>SUBSTRUCTURE
     1 K9H         1 TEMP              0 ****  ****    0 ROOT
