@<TRIPOS>MOLECULE
molecule
   76    80     1     0     0
SMALL
bcc


@<TRIPOS>ATOM
      1 C18          0.0000     0.0000     0.0000 ca         1 K9J      -0.181000
      2 C13          3.7070    -2.8130    -7.4680 c3         1 K9J       0.106000
      3 C12          3.3120    -1.4260    -6.9500 c3         1 K9J       0.148800
      4 C17          1.3770     0.0000     0.0000 ca         1 K9J       0.115600
      5 C16          5.4630    -1.1320    -5.8680 c3         1 K9J       0.148800
      6 C15          5.9450    -2.5070    -6.3420 c3         1 K9J       0.106000
      7 C10          3.5540     0.0080    -5.1000 ca         1 K9J       0.667200
      8 C8           3.2760     2.2930    -5.1650 ca         1 K9J       0.926300
      9 C22          2.0740     0.0000     1.2270 ca         1 K9J      -0.035000
     10 N2           2.0770    -0.0010    -1.2050 nh         1 K9J      -0.618000
     11 C5           2.9370    -0.0140    -3.8450 ca         1 K9J      -0.331900
     12 C6           2.7710    -1.3270    -3.1280 c3         1 K9J      -0.009100
     13 C1           1.7330    -1.1820    -2.0130 c3         1 K9J       0.157800
     14 C4           2.5040     1.1710    -3.3020 ca         1 K9J       0.501600
     15 C19         -0.7130     0.0060     1.2010 ca         1 K9J       0.126100
     16 C20         -0.0570     0.0120     2.4110 ca         1 K9J      -0.181000
     17 C21          1.3470     0.0000     2.4430 ca         1 K9J      -0.010000
     18 C3           1.8210     1.2290    -1.9620 c3         1 K9J       0.120500
     19 N7           2.6900     2.2990    -3.9810 nb         1 K9J      -0.823000
     20 N9           3.7040     1.1710    -5.7230 nb         1 K9J      -0.785000
     21 N11          4.0070    -1.1650    -5.6810 nh         1 K9J      -0.718300
     22 N14          5.1740    -2.8860    -7.5350 n          1 K9J      -0.497800
     23 C23          5.7950    -3.2920    -8.6610 c          1 K9J       0.664100
     24 C24          7.3000    -3.3600    -8.7090 c3         1 K9J      -0.159400
     25 O25          5.1440    -3.6030    -9.6350 o          1 K9J      -0.609100
     26 C26          7.7460    -3.8470   -10.0880 c3         1 K9J      -0.077100
     27 C27          2.0470     0.0060     3.6640 ca         1 K9J      -0.129000
     28 C28          3.4080    -0.0050     3.6610 ca         1 K9J      -0.113000
     29 C29          4.1210    -0.0220     2.4640 ca         1 K9J      -0.141000
     30 C30          3.4780     0.0000     1.2640 ca         1 K9J      -0.090000
     31 O31         -2.0710     0.0060     1.1750 oh         1 K9J      -0.515100
     32 O32          3.4460     3.4630    -5.8240 os         1 K9J      -0.393100
     33 C33          2.9670     4.6460    -5.1800 c3         1 K9J       0.147100
     34 C34          3.8250     5.8400    -5.6010 c3         1 K9J       0.160800
     35 N35          5.2210     5.6000    -5.2110 n3         1 K9J      -0.723600
     36 C36          6.1130     6.6070    -5.8040 c3         1 K9J       0.148100
     37 C37          5.3630     5.5670    -3.7490 c3         1 K9J       0.148100
     38 C38          1.5130     4.8950    -5.5850 c3         1 K9J      -0.117100
     39 H1          -0.5360    -0.0050    -0.9410 ha         1 K9J       0.144000
     40 H3           3.3360    -3.5730    -6.7910 h1         1 K9J       0.061950
     41 H4           3.5960    -0.6750    -7.6770 h1         1 K9J       0.058950
     42 H5           2.2420    -1.3930    -6.7870 h1         1 K9J       0.058950
     43 H6           5.9420    -0.8870    -4.9280 h1         1 K9J       0.058950
     44 H7           5.7140    -0.3860    -6.6130 h1         1 K9J       0.058950
     45 H8           6.9980    -2.4570    -6.5910 h1         1 K9J       0.061950
     46 H9           5.7850    -3.2380    -5.5590 h1         1 K9J       0.061950
     47 H10          3.7200    -1.6230    -2.6970 hc         1 K9J       0.066200
     48 H11          2.4380    -2.0800    -3.8310 hc         1 K9J       0.066200
     49 H12          1.7670    -2.0620    -1.3830 h1         1 K9J       0.046700
     50 H13          0.7570    -1.0310    -2.4580 h1         1 K9J       0.046700
     51 H14         -0.6220     0.0160     3.3350 ha         1 K9J       0.140000
     52 H15          0.7530     1.3210    -2.1220 h1         1 K9J       0.069700
     53 H16          2.2220     2.0680    -1.4050 h1         1 K9J       0.069700
     54 H17          7.7120    -2.3760    -8.5230 hc         1 K9J       0.057700
     55 H18          7.6540    -4.0490    -7.9510 hc         1 K9J       0.057700
     56 H19          7.3320    -4.8310   -10.2750 hc         1 K9J       0.043700
     57 H20          7.3930    -3.1580   -10.8460 hc         1 K9J       0.043700
     58 H21          8.8270    -3.8970   -10.1210 hc         1 K9J       0.043700
     59 H22          1.5050     0.0200     4.6020 ha         1 K9J       0.133000
     60 H23          3.9440    -0.0230     4.6020 ha         1 K9J       0.129000
     61 H24          5.2040    -0.0300     2.4880 ha         1 K9J       0.130000
     62 H25          4.0460    -0.0130     0.3420 ha         1 K9J       0.153000
     63 H26         -2.3950    -0.7300     1.6680 ho         1 K9J       0.422000
     64 H27          3.0260     4.5200    -4.1050 h1         1 K9J       0.076700
     65 H28          3.7670     5.9660    -6.6750 h1         1 K9J       0.047200
     66 H29          3.4630     6.7350    -5.1110 h1         1 K9J       0.047200
     67 H31          5.7830     7.5970    -5.5140 h1         1 K9J       0.033533
     68 H32          7.1250     6.4450    -5.4510 h1         1 K9J       0.033533
     69 H33          6.0890     6.5190    -6.8840 h1         1 K9J       0.033533
     70 H34          4.4460     5.1980    -3.3060 h1         1 K9J       0.033533
     71 H35          6.1830     4.9130    -3.4810 h1         1 K9J       0.033533
     72 H36          5.5640     6.5670    -3.3830 h1         1 K9J       0.033533
     73 H37          1.2230     4.1820    -6.3480 hc         1 K9J       0.047367
     74 H38          0.8720     4.7780    -4.7200 hc         1 K9J       0.047367
     75 H39          1.4130     5.9010    -5.9750 hc         1 K9J       0.047367
     76 H2           3.2900    -2.9630    -8.4570 h1         1 K9J       0.061950
@<TRIPOS>BOND
     1    31    15 1
     2    15     1 ar
     3    15    16 ar
     4     1     4 ar
     5    16    17 ar
     6    13    10 1
     7    13    12 1
     8     4    10 1
     9     4     9 ar
    10    17     9 ar
    11    17    27 ar
    12    10    18 1
    13    12    11 1
    14     9    30 ar
    15    18    14 1
    16    27    28 ar
    17    11    14 ar
    18    11     7 ar
    19    14    19 ar
    20    21     7 1
    21    21     3 1
    22    21     5 1
    23     7    20 ar
    24     2     3 1
    25     2    22 1
    26    19     8 ar
    27    36    35 1
    28    30    29 ar
    29     5     6 1
    30    28    29 ar
    31    37    35 1
    32    20     8 ar
    33    35    34 1
    34     8    32 1
    35    24    23 1
    36    24    26 1
    37    22     6 1
    38    22    23 1
    39    32    33 1
    40    23    25 2
    41    33    34 1
    42    33    38 1
    43     1    39 1
    44     2    76 1
    45     2    40 1
    46     3    41 1
    47     3    42 1
    48     5    43 1
    49     5    44 1
    50     6    45 1
    51     6    46 1
    52    12    47 1
    53    12    48 1
    54    13    49 1
    55    13    50 1
    56    16    51 1
    57    18    52 1
    58    18    53 1
    59    24    54 1
    60    24    55 1
    61    26    56 1
    62    26    57 1
    63    26    58 1
    64    27    59 1
    65    28    60 1
    66    29    61 1
    67    30    62 1
    68    31    63 1
    69    33    64 1
    70    34    65 1
    71    34    66 1
    72    36    67 1
    73    36    68 1
    74    36    69 1
    75    37    70 1
    76    37    71 1
    77    37    72 1
    78    38    73 1
    79    38    74 1
    80    38    75 1
@<TRIPOS>SUBSTRUCTURE
     1 K9J         1 TEMP              0 ****  ****    0 ROOT
