@<TRIPOS>MOLECULE
molecule
   45    48     1     0     0
SMALL
bcc


@<TRIPOS>ATOM
      1 N01          0.0000     0.0000     0.0000 nc         1 K9L      -0.690000
      2 C02          1.3040     0.0000     0.0000 cd         1 K9L       0.431400
      3 N03          1.7380     0.0000     1.2890 na         1 K9L      -0.216700
      4 C04          0.6210     0.0000     2.0880 cd         1 K9L      -0.241600
      5 C05         -0.4450     0.0010     1.2660 cc         1 K9L       0.312200
      6 C1'          9.8270    -4.6350    -4.3010 ca         1 K9L      -0.053300
      7 N11          4.0340     0.0000     0.8180 nb         1 K9L      -0.764000
      8 C12          3.0650     0.0000     1.7190 ca         1 K9L       0.794500
      9 N13          3.3240     0.0000     3.0160 nb         1 K9L      -0.757000
     10 C14          4.5700    -0.0000     3.4580 ca         1 K9L       0.490200
     11 C15          5.6110    -0.0000     2.5430 ca         1 K9L      -0.397600
     12 C16          5.3030    -0.0000     1.1910 ca         1 K9L       0.497600
     13 C17          6.4020    -0.0010     0.1590 c3         1 K9L      -0.132700
     14 C18          6.2060    -1.1830    -0.7930 c3         1 K9L       0.162800
     15 N19          7.2760    -1.1830    -1.7990 n7         1 K9L      -0.787200
     16 C2'         10.8840    -4.9520    -3.4700 ca         1 K9L      -0.164000
     17 C21          7.1220    -2.3070    -2.7320 cx         1 K9L       0.101500
     18 C22          7.3280    -2.0230    -4.2220 cx         1 K9L      -0.161400
     19 C23          8.3780    -2.8160    -3.4400 cx         1 K9L      -0.115700
     20 C24          8.4760    -4.3190    -3.7140 c3         1 K9L      -0.003100
     21 C3'         12.1260    -5.2430    -4.0100 ca         1 K9L       0.133900
     22 C4'         12.3060    -5.2170    -5.3830 ca         1 K9L      -0.171000
     23 C5'         11.2470    -4.8990    -6.2120 ca         1 K9L      -0.102000
     24 C6'         10.0100    -4.6030    -5.6720 ca         1 K9L      -0.139000
     25 F7'         13.1600    -5.5530    -3.1980 f          1 K9L      -0.141900
     26 H02          1.9370    -0.0000    -0.8800 h5         1 K9L       0.081100
     27 H04          0.6010     0.0000     3.1710 h4         1 K9L       0.191000
     28 H05         -1.4830     0.0010     1.5740 h4         1 K9L       0.045100
     29 H14          4.7750    -0.0000     4.5220 h4         1 K9L       0.039100
     30 H15          6.6410    -0.0000     2.8760 ha         1 K9L       0.156000
     31 H17          7.3620    -0.0900     0.6530 hc         1 K9L       0.070200
     32 H17A         6.3700     0.9250    -0.4040 hc         1 K9L       0.070200
     33 H18          5.2460    -1.0940    -1.2870 h1         1 K9L       0.047200
     34 H18A         6.2390    -2.1080    -0.2310 h1         1 K9L       0.047200
     35 HN19         7.2560    -0.3220    -2.3080 hn         1 K9L       0.357800
     36 H2'         10.7420    -4.9720    -2.3960 ha         1 K9L       0.147000
     37 H21          6.3840    -3.0700    -2.5150 h1         1 K9L       0.087700
     38 H22          7.6010    -1.0040    -4.4700 hc         1 K9L       0.076200
     39 H22A         6.7120    -2.6030    -4.8980 hc         1 K9L       0.076200
     40 H23          9.2830    -2.2660    -3.2100 hc         1 K9L       0.098700
     41 H24          7.7010    -4.6090    -4.4130 hc         1 K9L       0.054200
     42 H24A         8.3480    -4.8640    -2.7870 hc         1 K9L       0.054200
     43 H4'         13.2760    -5.4460    -5.8070 ha         1 K9L       0.144000
     44 H5'         11.3880    -4.8760    -7.2860 ha         1 K9L       0.136000
     45 H6'          9.1800    -4.3550    -6.3230 ha         1 K9L       0.135000
@<TRIPOS>BOND
     1     1     2 2
     2     1     5 1
     3     2     3 1
     4     3     4 1
     5     3     8 1
     6     4     5 2
     7     6    16 ar
     8     6    20 1
     9     6    24 ar
    10     7     8 ar
    11     7    12 ar
    12     8     9 ar
    13     9    10 ar
    14    10    11 ar
    15    11    12 ar
    16    12    13 1
    17    13    14 1
    18    14    15 1
    19    15    17 1
    20    16    21 ar
    21    17    18 1
    22    17    19 1
    23    18    19 1
    24    19    20 1
    25    21    22 ar
    26    21    25 1
    27    22    23 ar
    28    23    24 ar
    29     2    26 1
    30     4    27 1
    31     5    28 1
    32    10    29 1
    33    11    30 1
    34    13    31 1
    35    13    32 1
    36    14    33 1
    37    14    34 1
    38    15    35 1
    39    16    36 1
    40    17    37 1
    41    18    38 1
    42    18    39 1
    43    19    40 1
    44    20    41 1
    45    20    42 1
    46    22    43 1
    47    23    44 1
    48    24    45 1
@<TRIPOS>SUBSTRUCTURE
     1 K9L         1 TEMP              0 ****  ****    0 ROOT
