@<TRIPOS>MOLECULE
molecule
   57    61     1     0     0
SMALL
bcc


@<TRIPOS>ATOM
      1 C18          0.0000     0.0000     0.0000 ca         1 K9M      -0.163000
      2 N5           3.7070     1.1630    -5.7210 nb         1 K9M      -0.775000
      3 C13          3.7690    -2.8310    -7.4440 c3         1 K9M       0.106500
      4 C12          3.3550    -1.4470    -6.9340 c3         1 K9M       0.150800
      5 C17          1.3790     0.0000     0.0000 ca         1 K9M       0.092600
      6 C16          5.4990    -1.1180    -5.8510 c3         1 K9M       0.150800
      7 C15          6.0010    -2.4890    -6.3170 c3         1 K9M       0.106500
      8 N3           2.6700     2.2840    -3.9980 nb         1 K9M      -0.741000
      9 C10          1.8130     1.2210    -1.9700 c3         1 K9M       0.120500
     10 C8           1.7540    -1.1910    -2.0040 c3         1 K9M       0.156800
     11 C22          2.0720     0.0000     1.2290 ca         1 K9M      -0.018000
     12 C7           2.7970    -1.3320    -3.1150 c3         1 K9M      -0.015100
     13 C6           3.5730     0.0000    -5.0910 ca         1 K9M       0.628200
     14 C1           2.9510    -0.0230    -3.8390 ca         1 K9M      -0.283900
     15 C4           3.2600     2.2760    -5.1750 ca         1 K9M       0.685900
     16 C19         -0.7110     0.0050     1.1960 ca         1 K9M      -0.121000
     17 C20         -0.0680     0.0110     2.3970 ca         1 K9M      -0.115000
     18 C21          1.3370    -0.0000     2.4400 ca         1 K9M      -0.032000
     19 C2           2.4980     1.1610    -3.3080 ca         1 K9M       0.465600
     20 N9           2.0820    -0.0010    -1.2030 nh         1 K9M      -0.615000
     21 N11          4.0430    -1.1690    -5.6650 nh         1 K9M      -0.721300
     22 N14          5.2370    -2.8860    -7.5080 n          1 K9M      -0.497800
     23 C23          2.0280     0.0050     3.6650 ca         1 K9M      -0.123000
     24 C24          3.3880    -0.0050     3.6710 ca         1 K9M      -0.120000
     25 C25          4.1110    -0.0210     2.4790 ca         1 K9M      -0.135000
     26 C26          3.4760    -0.0010     1.2750 ca         1 K9M      -0.096000
     27 C27          5.8650    -3.2890    -8.6310 c          1 K9M       0.663100
     28 C28          7.3700    -3.3370    -8.6750 c3         1 K9M      -0.159400
     29 O29          5.2190    -3.6130    -9.6050 o          1 K9M      -0.608100
     30 C30          7.8250    -3.8250   -10.0520 c3         1 K9M      -0.077100
     31 H1          -0.5360    -0.0050    -0.9420 ha         1 K9M       0.131000
     32 H3           3.3560    -2.9920    -8.4320 h1         1 K9M       0.062700
     33 H4           2.2840    -1.4270    -6.7750 h1         1 K9M       0.056200
     34 H5           3.6310    -0.6960    -7.6650 h1         1 K9M       0.056200
     35 H6           5.7410    -0.3730    -6.5990 h1         1 K9M       0.056200
     36 H7           5.9730    -0.8610    -4.9110 h1         1 K9M       0.056200
     37 H8           5.8510    -3.2170    -5.5290 h1         1 K9M       0.062700
     38 H9           7.0540    -2.4250    -6.5650 h1         1 K9M       0.062700
     39 H10          0.7450     1.3190    -2.1200 h1         1 K9M       0.068200
     40 H11          2.1830     2.0760    -1.4180 h1         1 K9M       0.068200
     41 H12          0.7700    -1.0750    -2.4420 h1         1 K9M       0.045700
     42 H13          1.7750    -2.0710    -1.3720 h1         1 K9M       0.045700
     43 H14          2.4560    -2.0810    -3.8200 hc         1 K9M       0.070700
     44 H15          3.7480    -1.5960    -2.6680 hc         1 K9M       0.070700
     45 H16          3.3820     3.2110    -5.7100 h5         1 K9M       0.060100
     46 H17         -1.7940     0.0050     1.1720 ha         1 K9M       0.130000
     47 H18         -0.6380     0.0160     3.3170 ha         1 K9M       0.134000
     48 H19          1.4790     0.0180     4.5990 ha         1 K9M       0.133000
     49 H20          3.9170    -0.0220     4.6160 ha         1 K9M       0.128000
     50 H21          5.1940    -0.0290     2.5120 ha         1 K9M       0.129000
     51 H22          4.0500    -0.0140     0.3570 ha         1 K9M       0.152000
     52 H23          7.7330    -4.0160    -7.9130 hc         1 K9M       0.057700
     53 H24          7.7680    -2.3460    -8.4930 hc         1 K9M       0.057700
     54 H25          8.9070    -3.8590   -10.0840 hc         1 K9M       0.044033
     55 H26          7.4270    -4.8160   -10.2330 hc         1 K9M       0.044033
     56 H27          7.4630    -3.1450   -10.8140 hc         1 K9M       0.044033
     57 H2           3.4060    -3.5920    -6.7630 h1         1 K9M       0.062700
@<TRIPOS>BOND
     1    16     1 ar
     2    16    17 ar
     3     1     5 ar
     4    17    18 ar
     5    10    20 1
     6    10    12 1
     7     5    20 1
     8     5    11 ar
     9    18    11 ar
    10    18    23 ar
    11    20     9 1
    12     9    19 1
    13    12    14 1
    14    11    26 ar
    15    19    14 ar
    16    19     8 ar
    17    14    13 ar
    18    23    24 ar
    19     3     4 1
    20     3    22 1
    21     8    15 ar
    22     4    21 1
    23    13    21 1
    24    13     2 ar
    25    21     6 1
    26    15     2 ar
    27    26    25 ar
    28     6     7 1
    29    24    25 ar
    30    22    27 1
    31    22     7 1
    32    28    27 1
    33    28    30 1
    34    27    29 2
    35     1    31 1
    36     3    57 1
    37     3    32 1
    38     4    33 1
    39     4    34 1
    40     6    35 1
    41     6    36 1
    42     7    37 1
    43     7    38 1
    44     9    39 1
    45     9    40 1
    46    10    41 1
    47    10    42 1
    48    12    43 1
    49    12    44 1
    50    15    45 1
    51    16    46 1
    52    17    47 1
    53    23    48 1
    54    24    49 1
    55    25    50 1
    56    26    51 1
    57    28    52 1
    58    28    53 1
    59    30    54 1
    60    30    55 1
    61    30    56 1
@<TRIPOS>SUBSTRUCTURE
     1 K9M         1 TEMP              0 ****  ****    0 ROOT
