@<TRIPOS>MOLECULE
K9P
   45    47     1     0     0
SMALL
bcc


@<TRIPOS>ATOM
      1 O            0.0000     0.0000     0.0000 o          1 K9P      -0.628100
      2 C5           1.2120     0.0000     0.0000 c          1 K9P       0.584100
      3 C4           1.9650     0.0000     1.3050 c3         1 K9P      -0.117400
      4 C3           0.9710    -0.0000     2.4680 c3         1 K9P      -0.018400
      5 C2           1.7350    -0.0000     3.7940 c3         1 K9P      -0.032400
      6 C1           0.7400    -0.0000     4.9560 c3         1 K9P      -0.026400
      7 C            1.5050    -0.0010     6.2820 c3         1 K9P       0.005900
      8 N            1.8870    -0.0050    -1.1670 n          1 K9P       0.017000
      9 C10          3.2810    -0.0070    -1.2870 ca         1 K9P      -0.051400
     10 C11          4.2520    -0.0020    -0.2680 ca         1 K9P      -0.220000
     11 C12          5.5820    -0.0040    -0.5550 ca         1 K9P       0.177100
     12 O1           6.4960    -0.0000     0.4490 oh         1 K9P      -0.496100
     13 C13          6.0110    -0.0110    -1.9000 ca         1 K9P      -0.085000
     14 C18          5.0430    -0.0150    -2.9340 ca         1 K9P       0.040000
     15 C9           3.6770    -0.0130    -2.6040 ca         1 K9P      -0.157300
     16 C7           2.4460    -0.0170    -3.4830 c3         1 K9P       0.015600
     17 C8           2.4120     1.2360    -4.3600 c3         1 K9P       0.004900
     18 C6           1.2680    -0.0180    -2.4940 c3         1 K9P       0.043000
     19 C17          5.4670    -0.0220    -4.2740 ca         1 K9P      -0.115000
     20 C16          6.7980    -0.0240    -4.5580 ca         1 K9P      -0.080000
     21 C15          7.7490    -0.0200    -3.5400 ca         1 K9P      -0.117000
     22 C14          7.3740    -0.0130    -2.2310 ca         1 K9P      -0.064000
     23 H41C         2.5880     0.8840     1.3630 hc         1 K9P       0.043200
     24 H42C         2.5880    -0.8850     1.3630 hc         1 K9P       0.043200
     25 H31C         0.3480    -0.8840     2.4100 hc         1 K9P       0.031200
     26 H32C         0.3480     0.8850     2.4110 hc         1 K9P       0.031200
     27 H21C         2.3580     0.8840     3.8520 hc         1 K9P       0.011700
     28 H22C         2.3580    -0.8850     3.8510 hc         1 K9P       0.011700
     29 H11C         0.1180     0.8840     4.8980 hc         1 K9P       0.014700
     30 H12C         0.1170    -0.8850     4.8980 hc         1 K9P       0.014700
     31 HC1          0.8010     0.0050     7.1050 hc         1 K9P       0.000367
     32 HC2          2.1320     0.8810     6.3370 hc         1 K9P       0.000367
     33 HC3          2.1240    -0.8880     6.3420 hc         1 K9P       0.000367
     34 H61C         0.6720    -0.9140    -2.6220 h1         1 K9P       0.033700
     35 H62C         0.6610     0.8680    -2.6340 h1         1 K9P       0.033700
     36 H11          3.9330     0.0040     0.7680 ha         1 K9P       0.146000
     37 H1           6.5460    -0.8610     0.8320 ho         1 K9P       0.406000
     38 H14          8.1250    -0.0100    -1.4500 ha         1 K9P       0.115000
     39 H17          4.7390    -0.0240    -5.0750 ha         1 K9P       0.114000
     40 H7           2.4240    -0.9120    -4.0930 hc         1 K9P       0.037700
     41 H81C         1.3850     1.4810    -4.6010 hc         1 K9P       0.010367
     42 H82C         2.9640     1.0530    -5.2730 hc         1 K9P       0.010367
     43 H83C         2.8640     2.0630    -3.8250 hc         1 K9P       0.010367
     44 H16          7.1230    -0.0290    -5.5920 ha         1 K9P       0.100000
     45 H15          8.8020    -0.0220    -3.7930 ha         1 K9P       0.103000
@<TRIPOS>BOND
     1     1     2 2   
     2     2     3 1   
     3     2     8 1   
     4     3     4 1   
     5     3    23 1   
     6     3    24 1   
     7     4     5 1   
     8     4    25 1   
     9     4    26 1   
    10     5     6 1   
    11     5    27 1   
    12     5    28 1   
    13     6     7 1   
    14     6    29 1   
    15     6    30 1   
    16     7    31 1   
    17     7    32 1   
    18     7    33 1   
    19     8     9 1   
    20     8    18 1   
    21     9    10 ar  
    22     9    15 ar  
    23    10    11 ar  
    24    10    36 1   
    25    11    12 1   
    26    11    13 ar  
    27    12    37 1   
    28    13    14 ar  
    29    13    22 ar  
    30    14    15 ar  
    31    14    19 ar  
    32    15    16 1   
    33    16    17 1   
    34    16    18 1   
    35    16    40 1   
    36    17    41 1   
    37    17    42 1   
    38    17    43 1   
    39    18    34 1   
    40    18    35 1   
    41    19    20 ar  
    42    19    39 1   
    43    20    21 ar  
    44    20    44 1   
    45    21    22 ar  
    46    21    45 1   
    47    22    38 1   
@<TRIPOS>SUBSTRUCTURE
     1 K9P         1 TEMP              0 ****  ****    0 ROOT
