@<TRIPOS>MOLECULE
molecule
   45    47     1     0     0
SMALL
bcc


@<TRIPOS>ATOM
      1 O            0.0000     0.0000     0.0000 o          1 K9P      -0.586100
      2 C5           1.2120     0.0000     0.0000 c          1 K9P       0.673100
      3 C4           1.9650     0.0000     1.3050 c3         1 K9P      -0.162400
      4 C3           0.9710    -0.0000     2.4680 c3         1 K9P      -0.071400
      5 C2           1.7350    -0.0000     3.7940 c3         1 K9P      -0.085400
      6 C1           0.7400    -0.0000     4.9560 c3         1 K9P      -0.082400
      7 C            1.5050    -0.0010     6.2820 c3         1 K9P      -0.092100
      8 N            1.8870    -0.0050    -1.1670 n          1 K9P      -0.373000
      9 C10          3.2810    -0.0070    -1.2870 ca         1 K9P       0.075600
     10 C11          4.2520    -0.0020    -0.2680 ca         1 K9P      -0.211000
     11 C12          5.5820    -0.0040    -0.5550 ca         1 K9P       0.150100
     12 O1           6.4960    -0.0000     0.4490 oh         1 K9P      -0.516100
     13 C13          6.0110    -0.0110    -1.9000 ca         1 K9P      -0.078000
     14 C18          5.0430    -0.0150    -2.9340 ca         1 K9P       0.025000
     15 C9           3.6770    -0.0130    -2.6040 ca         1 K9P      -0.145300
     16 C7           2.4460    -0.0170    -3.4830 c3         1 K9P      -0.031400
     17 C8           2.4120     1.2360    -4.3600 c3         1 K9P      -0.085100
     18 C6           1.2680    -0.0180    -2.4940 c3         1 K9P       0.110000
     19 C17          5.4670    -0.0220    -4.2740 ca         1 K9P      -0.131000
     20 C16          6.7980    -0.0240    -4.5580 ca         1 K9P      -0.110000
     21 C15          7.7490    -0.0200    -3.5400 ca         1 K9P      -0.141000
     22 C14          7.3740    -0.0130    -2.2310 ca         1 K9P      -0.093000
     23 H41C         2.5880     0.8840     1.3630 hc         1 K9P       0.069200
     24 H42C         2.5880    -0.8850     1.3630 hc         1 K9P       0.069200
     25 H31C         0.3480    -0.8840     2.4100 hc         1 K9P       0.059200
     26 H32C         0.3480     0.8850     2.4110 hc         1 K9P       0.059200
     27 H21C         2.3580     0.8840     3.8520 hc         1 K9P       0.039200
     28 H22C         2.3580    -0.8850     3.8510 hc         1 K9P       0.039200
     29 H11C         0.1180     0.8840     4.8980 hc         1 K9P       0.043200
     30 H12C         0.1170    -0.8850     4.8980 hc         1 K9P       0.043200
     31 HC1          0.8010     0.0050     7.1050 hc         1 K9P       0.032700
     32 HC2          2.1320     0.8810     6.3370 hc         1 K9P       0.032700
     33 HC3          2.1240    -0.8880     6.3420 hc         1 K9P       0.032700
     34 H61C         0.6720    -0.9140    -2.6220 h1         1 K9P       0.063700
     35 H62C         0.6610     0.8680    -2.6340 h1         1 K9P       0.063700
     36 H11          3.9330     0.0040     0.7680 ha         1 K9P       0.154000
     37 H1           6.5460    -0.8610     0.8320 ho         1 K9P       0.423000
     38 H14          8.1250    -0.0100    -1.4500 ha         1 K9P       0.144000
     39 H17          4.7390    -0.0240    -5.0750 ha         1 K9P       0.136000
     40 H7           2.4240    -0.9120    -4.0930 hc         1 K9P       0.067700
     41 H81C         1.3850     1.4810    -4.6010 hc         1 K9P       0.042033
     42 H82C         2.9640     1.0530    -5.2730 hc         1 K9P       0.042033
     43 H83C         2.8640     2.0630    -3.8250 hc         1 K9P       0.042033
     44 H16          7.1230    -0.0290    -5.5920 ha         1 K9P       0.129000
     45 H15          8.8020    -0.0220    -3.7930 ha         1 K9P       0.131000
@<TRIPOS>BOND
     1     1     2 2
     2     2     3 1
     3     2     8 1
     4     3     4 1
     5     4     5 1
     6     5     6 1
     7     6     7 1
     8     8     9 1
     9     8    18 1
    10     9    10 ar
    11     9    15 ar
    12    10    11 ar
    13    11    12 1
    14    11    13 ar
    15    13    14 ar
    16    13    22 ar
    17    14    15 ar
    18    14    19 ar
    19    15    16 1
    20    16    17 1
    21    16    18 1
    22    19    20 ar
    23    20    21 ar
    24    21    22 ar
    25     3    23 1
    26     3    24 1
    27     4    25 1
    28     4    26 1
    29     5    27 1
    30     5    28 1
    31     6    29 1
    32     6    30 1
    33     7    31 1
    34     7    32 1
    35     7    33 1
    36    18    34 1
    37    18    35 1
    38    10    36 1
    39    12    37 1
    40    22    38 1
    41    19    39 1
    42    16    40 1
    43    17    41 1
    44    17    42 1
    45    17    43 1
    46    20    44 1
    47    21    45 1
@<TRIPOS>SUBSTRUCTURE
     1 K9P         1 TEMP              0 ****  ****    0 ROOT
