@<TRIPOS>MOLECULE
molecule
   21    22     1     0     0
SMALL
bcc


@<TRIPOS>ATOM
      1 C1           0.0000     0.0000     0.0000 cc         1 K9S      -0.043400
      2 N1          -2.3920     1.3650     1.8510 nz         1 K9S      -0.812600
      3 S2           1.7530     0.0000     0.0000 ss         1 K9S       0.043500
      4 C3           1.8220     0.0000     1.7570 ca         1 K9S      -0.025100
      5 C4           0.5240    -0.0010     2.2780 ca         1 K9S      -0.090800
      6 C5          -0.4810     0.0010     1.2280 cd         1 K9S      -0.205400
      7 C6           2.9180     0.0000     2.6240 ca         1 K9S      -0.073000
      8 C7           2.7230    -0.0000     3.9850 ca         1 K9S      -0.097000
      9 C10         -1.9590     0.0010     1.5190 c3         1 K9S       0.176000
     10 C8           1.4350     0.0010     4.5060 ca         1 K9S      -0.093000
     11 C9           0.3540    -0.0000     3.6800 ca         1 K9S      -0.125000
     12 H1          -0.6100    -0.0010    -0.8950 h4         1 K9S       0.180000
     13 H11N        -1.6340     2.0010     1.7000 hn         1 K9S       0.454800
     14 H12N        -3.1640     1.6210     1.2670 hn         1 K9S       0.454800
     15 H101        -2.5000    -0.3480     0.6480 hx         1 K9S       0.111700
     16 H102        -2.1620    -0.6560     2.3570 hx         1 K9S       0.111700
     17 H6           3.9240    -0.0000     2.2220 ha         1 K9S       0.157000
     18 H9          -0.6440     0.0010     4.1000 ha         1 K9S       0.112000
     19 H7           3.5750     0.0000     4.6530 ha         1 K9S       0.159000
     20 H8           1.2910    -0.0000     5.5790 ha         1 K9S       0.152000
     21 H13         -2.6910     1.3980     2.8050 hn         1 K9S       0.454800
@<TRIPOS>BOND
     1     1     3 1
     2     1     6 2
     3     2     9 1
     4     3     4 1
     5     4     5 ar
     6     4     7 ar
     7     5     6 1
     8     5    11 ar
     9     6     9 1
    10     7     8 ar
    11     8    10 ar
    12    10    11 ar
    13     1    12 1
    14     2    13 1
    15     2    14 1
    16     9    15 1
    17     9    16 1
    18     7    17 1
    19    11    18 1
    20     8    19 1
    21    10    20 1
    22    21     2 1
@<TRIPOS>SUBSTRUCTURE
     1 K9S         1 TEMP              0 ****  ****    0 ROOT
