@<TRIPOS>MOLECULE
K9Y
   63    67     1     0     0
SMALL
bcc


@<TRIPOS>ATOM
      1 C1           0.0000     0.0000     0.0000 ca         1 K9Y       0.691900
      2 N2           1.3160     0.0000     0.0000 nb         1 K9Y      -0.680000
      3 C3           1.9950     0.0000     1.1430 ca         1 K9Y       0.255800
      4 C4           1.2870    -0.0010     2.3570 ca         1 K9Y      -0.247200
      5 C5          -0.1180     0.0000     2.3060 ca         1 K9Y       0.593200
      6 N6          -0.7080     0.0010     1.1150 nb         1 K9Y      -0.746000
      7 N7           2.2040    -0.0010     3.3530 nc         1 K9Y      -0.490100
      8 N8           3.3260    -0.0010     1.4810 na         1 K9Y       0.348900
      9 C9           3.4010    -0.0010     2.8440 cd         1 K9Y       0.220700
     10 C10          5.5200    -0.9240    -1.3250 ca         1 K9Y      -0.114500
     11 C11          6.5480    -0.0040    -1.1710 ca         1 K9Y      -0.062400
     12 C12          6.5030     0.9180    -0.1330 ca         1 K9Y      -0.114500
     13 C13          5.4370     0.9190     0.7440 ca         1 K9Y      -0.059500
     14 C14          4.4100    -0.0010     0.5890 ca         1 K9Y      -0.196200
     15 C15          4.4540    -0.9230    -0.4480 ca         1 K9Y      -0.059500
     16 N16         10.7460    -2.5420    -4.6670 na         1 K9Y       0.584300
     17 C17          9.6560    -2.3830    -3.8680 cc         1 K9Y      -0.238700
     18 C18          9.1120    -3.6150    -3.6710 cd         1 K9Y      -0.330300
     19 C19          9.8900    -4.5450    -4.3670 cd         1 K9Y       0.392600
     20 N20         10.8660    -3.9060    -4.9610 nc         1 K9Y      -0.651800
     21 C21          9.6470    -6.0300    -4.4230 c3         1 K9Y      -0.081300
     22 C22         11.5950    -1.5220    -5.1190 ca         1 K9Y      -0.138200
     23 C23         11.0790    -0.2670    -5.4110 ca         1 K9Y      -0.109500
     24 C24         11.9180     0.7360    -5.8560 ca         1 K9Y      -0.082500
     25 C25         13.2700     0.4910    -6.0110 ca         1 K9Y      -0.089300
     26 C26         13.7860    -0.7590    -5.7210 ca         1 K9Y      -0.082500
     27 C27         12.9540    -1.7640    -5.2690 ca         1 K9Y      -0.109500
     28 C28         14.1810     1.5870    -6.4990 c3         1 K9Y       0.063200
     29 N29          9.1840    -1.1790    -3.3450 ns         1 K9Y      -0.020100
     30 C30          8.0860    -1.1690    -2.5640 c          1 K9Y       0.557100
     31 O31          7.5070    -2.2080    -2.3140 o          1 K9Y      -0.669100
     32 C33         10.8970    -6.7320    -4.9570 c3         1 K9Y       0.006900
     33 C34          9.3310    -6.5490    -3.0190 c3         1 K9Y       0.006900
     34 C35          8.4640    -6.3190    -5.3500 c3         1 K9Y       0.006900
     35 N36         -0.8690     0.0000     3.4690 nv         1 K9Y      -0.480500
     36 H1          -0.5220     0.0010    -0.9490 h5         1 K9Y      -0.004900
     37 H2           4.3200    -0.0020     3.4160 h5         1 K9Y       0.034800
     38 H3           5.5540    -1.6440    -2.1350 ha         1 K9Y       0.131500
     39 H4           7.3050     1.6370    -0.0110 ha         1 K9Y       0.131500
     40 H5           5.4020     1.6380     1.5540 ha         1 K9Y       0.119000
     41 H6           3.6520    -1.6410    -0.5690 ha         1 K9Y       0.119000
     42 H7           8.2310    -3.8360    -3.0790 ha         1 K9Y       0.193000
     43 H8          10.0200    -0.0740    -5.2900 ha         1 K9Y       0.120500
     44 H9          11.5160     1.7160    -6.0850 ha         1 K9Y       0.110000
     45 H10         14.8460    -0.9470    -5.8410 ha         1 K9Y       0.110000
     46 H11         13.3600    -2.7420    -5.0420 ha         1 K9Y       0.120500
     47 H12         14.3280     2.3130    -5.7080 hc         1 K9Y       0.010033
     48 H13         13.7340     2.0730    -7.3580 hc         1 K9Y       0.010033
     49 H14         15.1370     1.1630    -6.7810 hc         1 K9Y       0.010033
     50 H15          9.6850    -0.3300    -3.5140 hn         1 K9Y       0.170500
     51 H16          8.1010     0.8520    -2.2730 hn         1 K9Y       0.162500
     52 H17         11.0930    -6.4010    -5.9700 hc         1 K9Y       0.007811
     53 H18         11.7450    -6.4890    -4.3280 hc         1 K9Y       0.007811
     54 H19         10.7400    -7.8040    -4.9520 hc         1 K9Y       0.007811
     55 H20         10.0750    -6.1810    -2.3220 hc         1 K9Y       0.007811
     56 H21          9.3450    -7.6330    -3.0220 hc         1 K9Y       0.007811
     57 H22          8.3510    -6.2020    -2.7170 hc         1 K9Y       0.007811
     58 H23          8.3430    -7.3900    -5.4570 hc         1 K9Y       0.007811
     59 H24          8.6500    -5.8770    -6.3210 hc         1 K9Y       0.007811
     60 H25          7.5620    -5.8930    -4.9270 hc         1 K9Y       0.007811
     61 H26         -0.4120    -0.0000     4.3590 hn         1 K9Y       0.276300
     62 H27         -1.8680     0.0010     3.4190 hn         1 K9Y       0.276300
     63 N32          7.6290    -0.0040    -2.0600 ns         1 K9Y      -0.049100
@<TRIPOS>BOND
     1     1     2 ar  
     2     1     6 ar  
     3     1    36 1   
     4     2     3 ar  
     5     3     4 ar  
     6     3     8 1   
     7     4     5 ar  
     8     4     7 1   
     9     5     6 ar  
    10     5    35 1   
    11     7     9 2   
    12     8     9 1   
    13     8    14 1   
    14     9    37 1   
    15    10    11 ar  
    16    10    15 ar  
    17    10    38 1   
    18    11    12 ar  
    19    11    63 1   
    20    12    13 ar  
    21    12    39 1   
    22    13    14 ar  
    23    13    40 1   
    24    14    15 ar  
    25    15    41 1   
    26    16    17 1   
    27    16    20 1   
    28    16    22 1   
    29    17    18 2   
    30    17    29 1   
    31    18    19 1   
    32    18    42 1   
    33    19    20 2   
    34    19    21 1   
    35    21    32 1   
    36    21    33 1   
    37    21    34 1   
    38    22    23 ar  
    39    22    27 ar  
    40    23    24 ar  
    41    23    43 1   
    42    24    25 ar  
    43    24    44 1   
    44    25    26 ar  
    45    25    28 1   
    46    26    27 ar  
    47    26    45 1   
    48    27    46 1   
    49    28    47 1   
    50    28    48 1   
    51    28    49 1   
    52    29    30 1   
    53    29    50 1   
    54    30    31 2   
    55    30    63 1   
    56    32    52 1   
    57    32    53 1   
    58    32    54 1   
    59    33    55 1   
    60    33    56 1   
    61    33    57 1   
    62    34    58 1   
    63    34    59 1   
    64    34    60 1   
    65    35    61 1   
    66    35    62 1   
    67    51    63 1   
@<TRIPOS>SUBSTRUCTURE
     1 K9Y         1 TEMP              0 ****  ****    0 ROOT
