@<TRIPOS>MOLECULE
molecule
   63    67     1     0     0
SMALL
bcc


@<TRIPOS>ATOM
      1 C1           0.0000     0.0000     0.0000 ca         1 K9Y       0.743900
      2 N2           1.3160     0.0000     0.0000 nb         1 K9Y      -0.792000
      3 C3           1.9950     0.0000     1.1430 ca         1 K9Y       0.476800
      4 C4           1.2870    -0.0010     2.3570 ca         1 K9Y      -0.214200
      5 C5          -0.1180     0.0000     2.3060 ca         1 K9Y       0.790200
      6 N6          -0.7080     0.0010     1.1150 nb         1 K9Y      -0.837000
      7 N7           2.2040    -0.0010     3.3530 nc         1 K9Y      -0.582100
      8 N8           3.3260    -0.0010     1.4810 na         1 K9Y      -0.170100
      9 C9           3.4010    -0.0010     2.8440 cd         1 K9Y       0.420700
     10 C10          5.5200    -0.9240    -1.3250 ca         1 K9Y      -0.136500
     11 C11          6.5480    -0.0040    -1.1710 ca         1 K9Y       0.074600
     12 C12          6.5030     0.9180    -0.1330 ca         1 K9Y      -0.136500
     13 C13          5.4370     0.9190     0.7440 ca         1 K9Y      -0.102000
     14 C14          4.4100    -0.0010     0.5890 ca         1 K9Y      -0.019200
     15 C15          4.4540    -0.9230    -0.4480 ca         1 K9Y      -0.102000
     16 N16         10.7460    -2.5420    -4.6670 na         1 K9Y       0.117300
     17 C17          9.6560    -2.3830    -3.8680 cc         1 K9Y       0.076300
     18 C18          9.1120    -3.6150    -3.6710 cd         1 K9Y      -0.339300
     19 C19          9.8900    -4.5450    -4.3670 cd         1 K9Y       0.367600
     20 N20         10.8660    -3.9060    -4.9610 nc         1 K9Y      -0.502800
     21 C21          9.6470    -6.0300    -4.4230 c3         1 K9Y      -0.084300
     22 C22         11.5950    -1.5220    -5.1190 ca         1 K9Y       0.036800
     23 C23         11.0790    -0.2670    -5.4110 ca         1 K9Y      -0.144500
     24 C24         11.9180     0.7360    -5.8560 ca         1 K9Y      -0.109500
     25 C25         13.2700     0.4910    -6.0110 ca         1 K9Y      -0.091300
     26 C26         13.7860    -0.7590    -5.7210 ca         1 K9Y      -0.109500
     27 C27         12.9540    -1.7640    -5.2690 ca         1 K9Y      -0.144500
     28 C28         14.1810     1.5870    -6.4990 c3         1 K9Y      -0.047800
     29 N29          9.1840    -1.1790    -3.3450 ns         1 K9Y      -0.469100
     30 C30          8.0860    -1.1690    -2.5640 c          1 K9Y       0.790100
     31 O31          7.5070    -2.2080    -2.3140 o          1 K9Y      -0.621100
     32 C33         10.8970    -6.7320    -4.9570 c3         1 K9Y      -0.080433
     33 C34          9.3310    -6.5490    -3.0190 c3         1 K9Y      -0.080433
     34 C35          8.4640    -6.3190    -5.3500 c3         1 K9Y      -0.080433
     35 N36         -0.8690     0.0000     3.4690 nv         1 K9Y      -0.983500
     36 H1          -0.5220     0.0010    -0.9490 h5         1 K9Y       0.062100
     37 H2           4.3200    -0.0020     3.4160 h5         1 K9Y       0.082800
     38 H3           5.5540    -1.6440    -2.1350 ha         1 K9Y       0.156500
     39 H4           7.3050     1.6370    -0.0110 ha         1 K9Y       0.156500
     40 H5           5.4020     1.6380     1.5540 ha         1 K9Y       0.150000
     41 H6           3.6520    -1.6410    -0.5690 ha         1 K9Y       0.150000
     42 H7           8.2310    -3.8360    -3.0790 ha         1 K9Y       0.202000
     43 H8          10.0200    -0.0740    -5.2900 ha         1 K9Y       0.146000
     44 H9          11.5160     1.7160    -6.0850 ha         1 K9Y       0.137000
     45 H10         14.8460    -0.9470    -5.8410 ha         1 K9Y       0.137000
     46 H11         13.3600    -2.7420    -5.0420 ha         1 K9Y       0.146000
     47 H12         14.3280     2.3130    -5.7080 hc         1 K9Y       0.045700
     48 H13         13.7340     2.0730    -7.3580 hc         1 K9Y       0.045700
     49 H14         15.1370     1.1630    -6.7810 hc         1 K9Y       0.045700
     50 H15          9.6850    -0.3300    -3.5140 hn         1 K9Y       0.327500
     51 H16          8.1010     0.8520    -2.2730 hn         1 K9Y       0.321500
     52 H17         11.0930    -6.4010    -5.9700 hc         1 K9Y       0.039922
     53 H18         11.7450    -6.4890    -4.3280 hc         1 K9Y       0.039922
     54 H19         10.7400    -7.8040    -4.9520 hc         1 K9Y       0.039922
     55 H20         10.0750    -6.1810    -2.3220 hc         1 K9Y       0.039922
     56 H21          9.3450    -7.6330    -3.0220 hc         1 K9Y       0.039922
     57 H22          8.3510    -6.2020    -2.7170 hc         1 K9Y       0.039922
     58 H23          8.3430    -7.3900    -5.4570 hc         1 K9Y       0.039922
     59 H24          8.6500    -5.8770    -6.3210 hc         1 K9Y       0.039922
     60 H25          7.5620    -5.8930    -4.9270 hc         1 K9Y       0.039922
     61 H26         -0.4120    -0.0000     4.3590 hn         1 K9Y       0.450800
     62 H27         -1.8680     0.0010     3.4190 hn         1 K9Y       0.450800
     63 N32          7.6290    -0.0040    -2.0600 ns         1 K9Y      -0.486100
@<TRIPOS>BOND
     1    24    23 ar
     2    24    25 ar
     3    23    22 ar
     4    32    21 1
     5    28    25 1
     6    25    26 ar
     7    33    21 1
     8    22    16 1
     9    22    27 ar
    10    20    16 1
    11    20    19 2
    12    21    19 1
    13    21    34 1
    14    16    17 1
    15    19    18 1
    16    26    27 ar
    17    18    17 2
    18    17    29 1
    19    29    30 1
    20    30    63 1
    21    30    31 2
    22    63    11 1
    23    11    10 ar
    24    11    12 ar
    25    10    15 ar
    26    12    13 ar
    27    15    14 ar
    28    13    14 ar
    29    14     8 1
    30     9     8 1
    31     9     7 2
    32     8     3 1
    33     7     4 1
    34     3     4 ar
    35     3     2 ar
    36     4     5 ar
    37     2     1 ar
    38     1     6 ar
    39     5     6 ar
    40     5    35 1
    41     1    36 1
    42     9    37 1
    43    10    38 1
    44    12    39 1
    45    13    40 1
    46    15    41 1
    47    18    42 1
    48    23    43 1
    49    24    44 1
    50    26    45 1
    51    27    46 1
    52    28    47 1
    53    28    48 1
    54    28    49 1
    55    29    50 1
    56    63    51 1
    57    32    52 1
    58    32    53 1
    59    32    54 1
    60    33    55 1
    61    33    56 1
    62    33    57 1
    63    34    58 1
    64    34    59 1
    65    34    60 1
    66    35    61 1
    67    35    62 1
@<TRIPOS>SUBSTRUCTURE
     1 K9Y         1 TEMP              0 ****  ****    0 ROOT
