@<TRIPOS>MOLECULE
KA5
   43    45     1     0     0
SMALL
bcc


@<TRIPOS>ATOM
      1 N1           0.0000     0.0000     0.0000 nb         1 KA5      -0.603000
      2 C2           1.3180     0.0000     0.0000 ca         1 KA5       0.691900
      3 N3           2.0380     0.0000     1.1200 nb         1 KA5      -0.632000
      4 C4           1.4600    -0.0010     2.3120 ca         1 KA5       0.541200
      5 C5           0.0440    -0.0010     2.3730 ca         1 KA5      -0.219600
      6 C6          -0.6820    -0.0010     1.1570 ca         1 KA5       0.360600
      7 C7          -2.0820    -0.0020     1.1890 ca         1 KA5      -0.100300
      8 C8          -2.7340    -0.0020     2.3860 ca         1 KA5      -0.146000
      9 C9          -2.0250    -0.0020     3.5900 ca         1 KA5       0.073600
     10 C10         -0.6440    -0.0030     3.5920 ca         1 KA5      -0.113600
     11 N11          1.9820     0.0010    -1.2140 nv         1 KA5      -0.639500
     12 N12          2.2170    -0.0020     3.4640 nv         1 KA5      -0.665500
     13 Cl13         0.2300    -0.0030     5.0930 cl         1 KA5      -0.013400
     14 N14         -2.7210    -0.0020     4.8040 nu         1 KA5      -0.413600
     15 C15         -4.1860    -0.0020     4.8090 c3         1 KA5       0.233100
     16 C16         -4.6830    -0.0030     6.2310 ca         1 KA5      -0.123300
     17 C17         -5.1080    -1.1810     6.8150 ca         1 KA5      -0.086000
     18 C18         -5.5670    -1.1810     8.1240 ca         1 KA5       0.112100
     19 C19         -5.5990     0.0020     8.8460 ca         1 KA5      -0.157000
     20 C20         -5.1750     1.1810     8.2640 ca         1 KA5      -0.166000
     21 C21         -4.7110     1.1790     6.9570 ca         1 KA5       0.127100
     22 O22         -4.2880     2.3380     6.3850 os         1 KA5      -0.304900
     23 C23         -4.3430     3.5170     7.1900 c3         1 KA5       0.243700
     24 O24         -5.9840    -2.3410     8.6980 os         1 KA5      -0.305900
     25 C25         -6.4430    -2.2670    10.0490 c3         1 KA5       0.244700
     26 H7          -2.6460    -0.0020     0.2640 ha         1 KA5       0.118000
     27 H8          -3.8170    -0.0020     2.4040 ha         1 KA5       0.118000
     28 HN11         2.2210    -0.8650    -1.6540 hn         1 KA5       0.275800
     29 HN1A         2.2210     0.8680    -1.6530 hn         1 KA5       0.275800
     30 HN12         2.5130    -0.8690     3.8670 hn         1 KA5       0.286800
     31 HN1B         2.5130     0.8640     3.8690 hn         1 KA5       0.286800
     32 HN14        -2.2180    -0.0260     5.6690 hn         1 KA5       0.307800
     33 H15         -4.5490    -0.8860     4.2990 h1         1 KA5       0.021700
     34 H15A        -4.5480     0.8830     4.3000 h1         1 KA5       0.021700
     35 H17         -5.0830    -2.1050     6.2500 ha         1 KA5       0.122000
     36 H19         -5.9590     0.0020     9.8680 ha         1 KA5       0.120000
     37 H20         -5.1980     2.1040     8.8300 ha         1 KA5       0.122000
     38 H23         -5.3670     3.6990     7.4950 h1         1 KA5      -0.001633
     39 H23A        -3.7230     3.3840     8.0680 h1         1 KA5      -0.001633
     40 H23B        -3.9820     4.3630     6.6180 h1         1 KA5      -0.001633
     41 H25         -5.6450    -1.9000    10.6830 h1         1 KA5      -0.002300
     42 H25A        -7.2900    -1.5940    10.1070 h1         1 KA5      -0.002300
     43 H25B        -6.7430    -3.2540    10.3820 h1         1 KA5      -0.002300
@<TRIPOS>BOND
     1     1     2 ar  
     2     1     6 ar  
     3     2     3 ar  
     4     2    11 1   
     5     3     4 ar  
     6     4     5 ar  
     7     4    12 1   
     8     5     6 ar  
     9     5    10 ar  
    10     6     7 ar  
    11     7     8 ar  
    12     7    26 1   
    13     8     9 ar  
    14     8    27 1   
    15     9    10 ar  
    16     9    14 1   
    17    10    13 1   
    18    11    28 1   
    19    11    29 1   
    20    12    30 1   
    21    12    31 1   
    22    14    15 1   
    23    14    32 1   
    24    15    16 1   
    25    15    33 1   
    26    15    34 1   
    27    16    17 ar  
    28    16    21 ar  
    29    17    18 ar  
    30    17    35 1   
    31    18    19 ar  
    32    18    24 1   
    33    19    20 ar  
    34    19    36 1   
    35    20    21 ar  
    36    20    37 1   
    37    21    22 1   
    38    22    23 1   
    39    23    38 1   
    40    23    39 1   
    41    23    40 1   
    42    24    25 1   
    43    25    41 1   
    44    25    42 1   
    45    25    43 1   
@<TRIPOS>SUBSTRUCTURE
     1 KA5         1 TEMP              0 ****  ****    0 ROOT
