@<TRIPOS>MOLECULE
molecule
   60    62     1     0     0
SMALL
bcc


@<TRIPOS>ATOM
      1 NZ           0.0000     0.0000     0.0000 nz         1 KAA      -0.804600
      2 CE           1.4580     0.0000     0.0000 c3         1 KAA       0.094800
      3 CD           1.9880     0.0000     1.4320 c3         1 KAA      -0.107400
      4 CG           3.5190    -0.0090     1.4550 c3         1 KAA      -0.067400
      5 CB           4.0550     0.0280     2.8910 c3         1 KAA      -0.094400
      6 CA           5.5880    -0.0070     2.9410 c3         1 KAA       0.027500
      7 N            6.0620     0.0590     4.3240 nz         1 KAA      -0.803600
      8 C            6.1880     1.1910     2.2230 c          1 KAA       0.639100
      9 O            5.6070     2.2660     2.1150 o          1 KAA      -0.463100
     10 N8           7.4990     0.9520     1.6970 ns         1 KAA      -0.660300
     11 S1           8.4230     2.1150     0.8410 s6         1 KAA       1.478100
     12 O1S          9.8210     1.7490     0.9760 o          1 KAA      -0.522800
     13 O2S          7.9700     3.4360     1.2370 o          1 KAA      -0.522800
     14 O5'          7.9860     1.8710    -0.7170 os         1 KAA      -0.478500
     15 C5'          6.6220     2.0290    -1.0810 c3         1 KAA       0.161400
     16 C4'          6.4710     1.7500    -2.5700 c3         1 KAA       0.118100
     17 O4'          6.8620     0.3800    -2.8190 os         1 KAA      -0.378600
     18 C3'          5.0310     1.8850    -3.0550 c3         1 KAA       0.081100
     19 O3'          5.0430     2.2100    -4.4450 oh         1 KAA      -0.554800
     20 C2'          4.4960     0.4780    -2.8710 c3         1 KAA       0.102100
     21 O2'          3.3790     0.1990    -3.6910 oh         1 KAA      -0.552800
     22 C1'          5.7060    -0.3590    -3.2570 c3         1 KAA       0.261800
     23 N9           5.7200    -1.6940    -2.6620 na         1 KAA      -0.262000
     24 C8           6.2140    -2.0220    -1.4260 cc         1 KAA       0.371700
     25 N7           6.0880    -3.3060    -1.1650 nd         1 KAA      -0.560100
     26 C5           5.4880    -3.8350    -2.2800 ca         1 KAA      -0.229200
     27 C4           5.2510    -2.8480    -3.2240 ca         1 KAA       0.470800
     28 N3           4.6820    -2.9980    -4.4290 nb         1 KAA      -0.720000
     29 C2           4.3440    -4.2900    -4.6350 ca         1 KAA       0.706900
     30 N1           4.5130    -5.3540    -3.8120 nb         1 KAA      -0.770000
     31 C6           5.0960    -5.1280    -2.6100 ca         1 KAA       0.770200
     32 N6           5.2990    -6.1910    -1.7130 nv         1 KAA      -0.978500
     33 HNZ1        -0.3340    -0.0130    -0.9430 hn         1 KAA       0.466800
     34 HNZ2        -0.3340    -0.8110     0.4830 hn         1 KAA       0.466800
     35 HE1          1.8160    -0.8840    -0.5140 hx         1 KAA       0.117700
     36 HE2          1.8160     0.8840    -0.5140 hx         1 KAA       0.117700
     37 HD1          1.6200    -0.8790     1.9470 hc         1 KAA       0.074200
     38 HD2          1.6310     0.8860     1.9430 hc         1 KAA       0.074200
     39 HG1          3.8870     0.8560     0.9160 hc         1 KAA       0.072700
     40 HG2          3.8750    -0.9090     0.9670 hc         1 KAA       0.072700
     41 HB1          3.7090     0.9360     3.3710 hc         1 KAA       0.082700
     42 HB2          3.6670    -0.8260     3.4330 hc         1 KAA       0.082700
     43 HA           5.9440    -0.9210     2.4800 hx         1 KAA       0.134700
     44 HN1          5.6260    -0.6640     4.8620 hn         1 KAA       0.471800
     45 HN2          7.0550    -0.0640     4.3430 hn         1 KAA       0.471800
     46 HN8          7.9020     0.0470     1.8370 hn         1 KAA       0.341500
     47 H5'1         6.3050     3.0420    -0.8670 h1         1 KAA       0.036700
     48 H5'2         6.0140     1.3320    -0.5180 h1         1 KAA       0.036700
     49 H4'          7.1080     2.4180    -3.1370 h1         1 KAA       0.127700
     50 H3'          4.4760     2.6060    -2.4680 h1         1 KAA       0.047700
     51 HO3'         4.8040     3.1150    -4.5580 ho         1 KAA       0.427000
     52 H2'          4.2500     0.3110    -1.8290 h1         1 KAA       0.007700
     53 HO2'         2.8410     0.9700    -3.7620 ho         1 KAA       0.408000
     54 H1'          5.7380    -0.4510    -4.3360 h2         1 KAA       0.145700
     55 H8           6.6540    -1.3070    -0.7420 h5         1 KAA       0.044800
     56 H2           3.8760    -4.5050    -5.5880 h5         1 KAA       0.067100
     57 HN61         5.7280    -6.0210    -0.8240 hn         1 KAA       0.456300
     58 HN62         5.0150    -7.1180    -1.9620 hn         1 KAA       0.456300
     59 HZ3         -0.3340     0.8230     0.4610 hn         1 KAA       0.466800
     60 HN3          5.8440     0.9570     4.7090 hn         1 KAA       0.471800
@<TRIPOS>BOND
     1     1     2 1
     2     1    33 1
     3     1    34 1
     4     2     3 1
     5     2    35 1
     6     2    36 1
     7     3     4 1
     8     3    37 1
     9     3    38 1
    10     4     5 1
    11     4    39 1
    12     4    40 1
    13     5     6 1
    14     5    41 1
    15     5    42 1
    16     6     8 1
    17     6     7 1
    18     6    43 1
    19     7    44 1
    20     7    45 1
    21     8     9 2
    22     8    10 1
    23    10    11 1
    24    10    46 1
    25    11    12 2
    26    11    14 1
    27    11    13 2
    28    14    15 1
    29    15    16 1
    30    15    47 1
    31    15    48 1
    32    16    17 1
    33    16    18 1
    34    16    49 1
    35    17    22 1
    36    18    20 1
    37    18    19 1
    38    18    50 1
    39    19    51 1
    40    20    22 1
    41    20    21 1
    42    20    52 1
    43    21    53 1
    44    22    23 1
    45    22    54 1
    46    23    27 1
    47    23    24 1
    48    24    25 2
    49    24    55 1
    50    25    26 1
    51    26    31 ar
    52    26    27 ar
    53    27    28 ar
    54    28    29 ar
    55    29    30 ar
    56    29    56 1
    57    30    31 ar
    58    31    32 1
    59    32    57 1
    60    32    58 1
    61    59     1 1
    62    60     7 1
@<TRIPOS>SUBSTRUCTURE
     1 KAA         1 TEMP              0 ****  ****    0 ROOT
