@<TRIPOS>MOLECULE
KAF
   65    67     1     0     0
SMALL
bcc


@<TRIPOS>ATOM
      1 CD1          0.0000     0.0000     0.0000 ca         1 KAF      -0.102500
      2 CE1          1.3830     0.0000     0.0000 ca         1 KAF      -0.108500
      3 CZ           2.0740     0.0000     1.1970 ca         1 KAF      -0.128000
      4 CE2          1.3830    -0.0010     2.3940 ca         1 KAF      -0.108500
      5 CD2         -0.0000    -0.0010     2.3940 ca         1 KAF      -0.102500
      6 CG          -0.6910     0.0050     1.1970 ca         1 KAF      -0.064300
      7 CB          -2.1980     0.0050     1.1960 c3         1 KAF       0.025900
      8 CA          -2.7080     1.4480     1.2040 c3         1 KAF      -0.095300
      9 C           -4.2100     1.4500     1.0800 c          1 KAF       0.974600
     10 OXT         -4.7960     0.9050     0.0030 o          1 KAF      -0.887300
     11 O           -4.8870     1.9440     1.9500 o          1 KAF      -0.887300
     12 N           -2.3210     2.0960     2.4590 ns         1 KAF      -0.139900
     13 CBC         -2.1940     3.4380     2.5130 c          1 KAF       0.574100
     14 OAA         -2.4010     4.1070     1.5230 o          1 KAF      -0.662100
     15 CAV         -1.7950     4.1060     3.8040 c3         1 KAF      -0.106400
     16 CAW         -1.7240     5.6190     3.5940 c3         1 KAF      -0.041400
     17 CBM         -1.3190     6.2970     4.9050 c3         1 KAF       0.368600
     18 OAE         -2.2890     6.0010     5.9130 oh         1 KAF      -0.608300
     19 OAF         -0.0400     5.8120     5.3160 oh         1 KAF      -0.608300
     20 CBL         -1.2490     7.8110     4.6950 c3         1 KAF       0.001700
     21 CAX         -0.1270     8.1370     3.7080 c3         1 KAF       0.005900
     22 CBF         -0.1350     9.6140     3.4070 ca         1 KAF      -0.070300
     23 CAO         -0.8930    10.1000     2.3580 ca         1 KAF      -0.090000
     24 CAI         -0.9000    11.4550     2.0820 ca         1 KAF      -0.096500
     25 CAG         -0.1510    12.3220     2.8550 ca         1 KAF      -0.108000
     26 CAJ          0.6060    11.8350     3.9040 ca         1 KAF      -0.096500
     27 CAP          0.6100    10.4810     4.1830 ca         1 KAF      -0.090000
     28 NBA         -0.9780     8.4690     5.9760 ns         1 KAF      -0.178900
     29 CBE         -1.3560     9.7480     6.1690 c          1 KAF       0.589700
     30 OAC         -1.9200    10.3570     5.2800 o          1 KAF      -0.636100
     31 CBG         -1.0830    10.4130     7.4610 ca         1 KAF      -0.143600
     32 CAR         -0.4300     9.7190     8.4820 ca         1 KAF      -0.062000
     33 CAL         -0.1780    10.3450     9.6860 ca         1 KAF      -0.115500
     34 CAH         -0.5720    11.6570     9.8830 ca         1 KAF      -0.088000
     35 CAK         -1.2200    12.3490     8.8740 ca         1 KAF      -0.115500
     36 CAQ         -1.4720    11.7370     7.6640 ca         1 KAF      -0.062000
     37 HD1         -0.5420     0.0020    -0.9380 ha         1 KAF       0.108500
     38 HE1          1.9250    -0.0020    -0.9380 ha         1 KAF       0.091000
     39 HZ           3.1570    -0.0000     1.1960 ha         1 KAF       0.090000
     40 HE2          1.9250    -0.0030     3.3320 ha         1 KAF       0.091000
     41 HD2         -0.5420     0.0010     3.3320 ha         1 KAF       0.108500
     42 HB          -2.5600    -0.5100     2.0780 hc         1 KAF       0.035200
     43 HBA         -2.5590    -0.5000     0.3090 hc         1 KAF       0.035200
     44 HA          -2.2760     1.9870     0.3700 h1         1 KAF       0.059700
     45 HN          -2.2050     1.5500     3.2890 hn         1 KAF       0.151500
     46 HAV         -0.8250     3.7380     4.1150 hc         1 KAF       0.023200
     47 HAVA        -2.5290     3.8810     4.5680 hc         1 KAF       0.023200
     48 HAW         -0.9900     5.8440     2.8300 hc         1 KAF       0.054200
     49 HAWA        -2.6940     5.9870     3.2820 hc         1 KAF       0.054200
     50 HOAE        -1.8520     5.6760     6.6830 ho         1 KAF       0.392500
     51 HOAF        -0.1480     5.2020     6.0260 ho         1 KAF       0.392500
     52 HBL         -2.1930     8.1650     4.2990 h1         1 KAF       0.082700
     53 HAX         -0.2800     7.5810     2.7910 hc         1 KAF       0.038700
     54 HAXA         0.8270     7.8620     4.1420 hc         1 KAF       0.038700
     55 HAO         -1.4800     9.4210     1.7530 ha         1 KAF       0.104000
     56 HAI         -1.4940    11.8360     1.2600 ha         1 KAF       0.094500
     57 HAG         -0.1560    13.3830     2.6370 ha         1 KAF       0.092000
     58 HAJ          1.1920    12.5150     4.5110 ha         1 KAF       0.094500
     59 HAP          1.2030    10.0990     5.0050 ha         1 KAF       0.104000
     60 HNBA        -0.5100     7.9700     6.7070 hn         1 KAF       0.172500
     61 HAR         -0.1210     8.6920     8.3290 ha         1 KAF       0.115500
     62 HAL          0.3280     9.8080    10.4780 ha         1 KAF       0.101500
     63 HAH         -0.3740    12.1430    10.8300 ha         1 KAF       0.098000
     64 HAK         -1.5240    13.3770     9.0340 ha         1 KAF       0.101500
     65 HAQ         -1.9800    12.2810     6.8760 ha         1 KAF       0.115500
@<TRIPOS>BOND
     1     1     2 ar  
     2     1     6 ar  
     3     1    37 1   
     4     2     3 ar  
     5     2    38 1   
     6     3     4 ar  
     7     3    39 1   
     8     4     5 ar  
     9     4    40 1   
    10     5     6 ar  
    11     5    41 1   
    12     6     7 1   
    13     7     8 1   
    14     7    42 1   
    15     7    43 1   
    16     8     9 1   
    17     8    12 1   
    18     8    44 1   
    19     9    10 1   
    20     9    11 1   
    21    12    13 1   
    22    12    45 1   
    23    13    14 2   
    24    13    15 1   
    25    15    16 1   
    26    15    46 1   
    27    15    47 1   
    28    16    17 1   
    29    16    48 1   
    30    16    49 1   
    31    17    18 1   
    32    17    19 1   
    33    17    20 1   
    34    18    50 1   
    35    19    51 1   
    36    20    21 1   
    37    20    28 1   
    38    20    52 1   
    39    21    22 1   
    40    21    53 1   
    41    21    54 1   
    42    22    23 ar  
    43    22    27 ar  
    44    23    24 ar  
    45    23    55 1   
    46    24    25 ar  
    47    24    56 1   
    48    25    26 ar  
    49    25    57 1   
    50    26    27 ar  
    51    26    58 1   
    52    27    59 1   
    53    28    29 1   
    54    28    60 1   
    55    29    30 2   
    56    29    31 1   
    57    31    32 ar  
    58    31    36 ar  
    59    32    33 ar  
    60    32    61 1   
    61    33    34 ar  
    62    33    62 1   
    63    34    35 ar  
    64    34    63 1   
    65    35    36 ar  
    66    35    64 1   
    67    36    65 1   
@<TRIPOS>SUBSTRUCTURE
     1 KAF         1 TEMP              0 ****  ****    0 ROOT
