@<TRIPOS>MOLECULE
KAH
   22    21     1     0     0
SMALL
bcc


@<TRIPOS>ATOM
      1 C4          1.4410   -0.1160   -0.0420 c3        1 KAH      0.096100
      2 C5         -0.1060   -0.0040    0.0160 c3        1 KAH      0.160500
      3 N5         -0.7760   -1.1610    0.5850 n3        1 KAH     -0.897800
      4 C6         -0.6210    0.3250   -1.3840 c3        1 KAH     -0.085100
      5 C3          2.0540   -0.1860    1.3500 c3        1 KAH     -0.104400
      6 C2          3.5420    0.0630    1.3340 c3        1 KAH     -0.203400
      7 C1          4.1070    0.1160    2.7670 c         1 KAH      0.910600
      8 O1          5.1850   -0.5040    2.9930 o         1 KAH     -0.846300
      9 OH1         3.4750    0.7850    3.6340 o         1 KAH     -0.846300
     10 OXT         1.7420   -1.2740   -0.8180 oh        1 KAH     -0.632800
     11 H4          1.8450    0.7820   -0.5910 h1        1 KAH      0.033700
     12 H5         -0.3380    0.8720    0.6940 h1        1 KAH      0.056700
     13 HN51       -0.4040   -1.3340    1.5010 hn        1 KAH      0.346300
     14 HN52       -0.5880   -1.9650    0.0160 hn        1 KAH      0.346300
     15 HC1        -0.1820    1.2960   -1.7170 hc        1 KAH      0.032367
     16 HC2        -1.7330    0.4150   -1.3900 hc        1 KAH      0.032367
     17 HC3        -0.3160   -0.4700   -2.1060 hc        1 KAH      0.032367
     18 HC31        1.5750    0.5800    2.0160 hc        1 KAH      0.057200
     19 HC32        1.8530   -1.1940    1.7980 hc        1 KAH      0.057200
     20 HC21        4.0730   -0.7380    0.7600 hc        1 KAH      0.020200
     21 HC22        3.7640    1.0430    0.8420 hc        1 KAH      0.020200
     22 HXT         2.6340   -1.5480   -0.5710 ho        1 KAH      0.412000
@<TRIPOS>BOND
     1    1    2 1   
     2    1    5 1   
     3    1   10 1   
     4    1   11 1   
     5    2    3 1   
     6    2    4 1   
     7    2   12 1   
     8    3   13 1   
     9    3   14 1   
    10    4   15 1   
    11    4   16 1   
    12    4   17 1   
    13    5    6 1   
    14    5   18 1   
    15    5   19 1   
    16    6    7 1   
    17    6   20 1   
    18    6   21 1   
    19    7    8 1   
    20    7    9 1   
    21   10   22 1   
@<TRIPOS>SUBSTRUCTURE
     1 KAH         1 TEMP              0 ****  ****    0 ROOT
