@<TRIPOS>MOLECULE
molecule
   28    28     1     0     0
SMALL
bcc


@<TRIPOS>ATOM
      1 N            0.0000     0.0000     0.0000 n7         1 KAI      -0.815200
      2 CD           1.4850     0.0000     0.0000 c3         1 KAI       0.142800
      3 CD1          3.7910    -1.2790     0.7900 c2         1 KAI      -0.280000
      4 CD2          3.9220    -0.3480     3.0440 c3         1 KAI      -0.052900
      5 CA          -0.4030    -0.8990     1.1030 c3         1 KAI       0.067500
      6 CB           0.7530    -0.9150     2.1200 c3         1 KAI      -0.040700
      7 CB1          1.2920    -2.3370     2.2890 c3         1 KAI      -0.176400
      8 CG           1.8390     0.0000     1.5080 c3         1 KAI      -0.089500
      9 CG1          0.2450    -3.1960     2.9510 c          1 KAI       0.857600
     10 CG2          3.2120    -0.5780     1.7340 c2         1 KAI      -0.064400
     11 C           -1.6550    -0.3780     1.7590 c          1 KAI       0.887600
     12 O           -1.9840     0.7750     1.6050 o          1 KAI      -0.845800
     13 OD1          0.4980    -4.4890     3.2030 o          1 KAI      -0.832800
     14 OD2         -0.8230    -2.7180     3.2560 o          1 KAI      -0.832800
     15 OXT         -2.4070    -1.1940     2.5160 o          1 KAI      -0.845800
     16 HN1         -0.3340     0.9250     0.1850 hn         1 KAI       0.358800
     17 HD1          1.8650     0.8930    -0.4810 h1         1 KAI       0.023200
     18 HD2          1.8650    -0.8930    -0.4810 h1         1 KAI       0.023200
     19 HD11         3.2820    -1.4440    -0.1510 ha         1 KAI       0.100000
     20 HD12         4.7800    -1.6920     0.9510 ha         1 KAI       0.100000
     21 HD21         3.2280     0.0720     3.7620 hc         1 KAI       0.029700
     22 HD22         4.3030    -1.2910     3.4190 hc         1 KAI       0.029700
     23 HD23         4.7460     0.3390     2.8930 hc         1 KAI       0.029700
     24 HA          -0.5690    -1.8990     0.7200 h1         1 KAI       0.080700
     25 HB           0.4210    -0.5170     3.0710 hc         1 KAI       0.075700
     26 HB11         1.5340    -2.7490     1.3170 hc         1 KAI       0.014200
     27 HB12         2.1830    -2.3150     2.9050 hc         1 KAI       0.014200
     28 HG           1.7670     1.0010     1.9160 hc         1 KAI       0.039700
@<TRIPOS>BOND
     1     1     2 1
     2     1     5 1
     3     1    16 1
     4     2     8 1
     5     2    17 1
     6     2    18 1
     7     3    10 2
     8     3    19 1
     9     3    20 1
    10     4    10 1
    11     4    21 1
    12     4    22 1
    13     4    23 1
    14     5     6 1
    15     5    11 1
    16     5    24 1
    17     6     7 1
    18     6     8 1
    19     6    25 1
    20     7     9 1
    21     7    26 1
    22     7    27 1
    23     8    10 1
    24     8    28 1
    25     9    13 1
    26     9    14 1
    27    11    12 1
    28    11    15 1
@<TRIPOS>SUBSTRUCTURE
     1 KAI         1 TEMP              0 ****  ****    0 ROOT
