@<TRIPOS>MOLECULE
KAM
   52    52     1     0     0
SMALL
bcc


@<TRIPOS>ATOM
      1 N1           0.0000     0.0000     0.0000 nb         1 KAM      -0.600000
      2 C2           1.3190     0.0000     0.0000 ca         1 KAM       0.254600
      3 C2A          2.0640    -0.0010    -1.3100 c3         1 KAM      -0.018400
      4 C3           2.0270     0.0000     1.1920 ca         1 KAM      -0.014200
      5 O3           3.3860    -0.0000     1.1870 oh         1 KAM      -0.505100
      6 C4           1.3250     0.0020     2.3940 ca         1 KAM      -0.129300
      7 C4A          2.0550     0.0030     3.7130 c3         1 KAM       0.191100
      8 C5          -0.0580    -0.0030     2.3490 ca         1 KAM      -0.104600
      9 C6          -0.6930     0.0010     1.1210 ca         1 KAM       0.395200
     10 C5A         -0.8630    -0.0010     3.6230 c3         1 KAM       0.258700
     11 OP4         -2.2550     0.0050     3.3070 os         1 KAM      -0.458200
     12 P           -3.0510     0.0070     4.7070 p5         1 KAM       0.658900
     13 OP1         -2.6820     1.2110     5.4830 o          1 KAM      -0.753833
     14 OP2         -4.6360     0.0140     4.4240 o          1 KAM      -0.753833
     15 OP3         -2.6620    -1.3110     5.5460 o          1 KAM      -0.753833
     16 N9C          2.2930     1.3880     4.1400 n7         1 KAM      -0.519200
     17 C9C          4.5110     1.2910     5.1720 c3         1 KAM      -0.022100
     18 C8C          3.0030     1.3170     5.4240 c3         1 KAM       0.008500
     19 C7C          2.6530     2.5220     6.2580 c          1 KAM       0.615100
     20 O7C          2.3780     3.5680     5.7220 o          1 KAM      -0.538100
     21 C6C          2.6470     2.4220     7.7620 c3         1 KAM      -0.123400
     22 C5C          2.2630     3.7760     8.3620 c3         1 KAM      -0.022400
     23 C4C          2.2580     3.6740     9.8890 c3         1 KAM      -0.039400
     24 C3C          1.8730     5.0280    10.4890 c3         1 KAM      -0.016400
     25 C2C          1.8690     4.9280    12.0150 c3         1 KAM      -0.133400
     26 C1C          1.4900     6.2600    12.6060 c          1 KAM       0.984600
     27 O1C          1.4200     6.4090    13.9380 o          1 KAM      -0.917800
     28 O2C          1.2480     7.1950    11.8800 o          1 KAM      -0.917800
     29 HA21         1.3600     0.1110    -2.1260 hc         1 KAM      -0.008967
     30 HA22         2.5990    -0.9370    -1.4200 hc         1 KAM      -0.008967
     31 HA23         2.7690     0.8210    -1.3250 hc         1 KAM      -0.008967
     32 HO3          3.6990    -0.8430     0.9010 ho         1 KAM       0.377000
     33 H4A1         1.4550    -0.5070     4.4570 h1         1 KAM       0.015700
     34 H4A2         3.0030    -0.5090     3.6010 h1         1 KAM       0.015700
     35 HC6         -1.7750    -0.0010     1.0800 h4         1 KAM       0.032100
     36 HA51        -0.6200     0.8820     4.2020 h1         1 KAM       0.037700
     37 HA52        -0.6280    -0.8870     4.2000 h1         1 KAM       0.037700
     38 HNC9         2.8680     1.8510     3.4660 hn         1 KAM       0.256800
     39 HC91         4.9720     2.1460     5.6510 hc         1 KAM       0.001367
     40 HC92         4.9300     0.3790     5.5800 hc         1 KAM       0.001367
     41 HC93         4.7000     1.3290     4.1060 hc         1 KAM       0.001367
     42 HC8          2.7090     0.4160     5.9500 h1         1 KAM       0.053700
     43 HC61         3.6340     2.1400     8.1080 hc         1 KAM       0.030200
     44 HC62         1.9290     1.6720     8.0710 hc         1 KAM       0.030200
     45 HC51         1.2760     4.0570     8.0160 hc         1 KAM       0.029200
     46 HC52         2.9820     4.5250     8.0530 hc         1 KAM       0.029200
     47 HC41         1.5390     2.9250    10.1980 hc         1 KAM       0.001200
     48 HC42         3.2450     3.3930    10.2360 hc         1 KAM       0.001200
     49 HC31         0.8860     5.3090    10.1420 hc         1 KAM       0.022700
     50 HC32         2.5920     5.7770    10.1780 hc         1 KAM       0.022700
     51 HC21         2.8560     4.6470    12.3610 hc         1 KAM       0.001700
     52 HC22         1.1510     4.1780    12.3250 hc         1 KAM       0.001700
@<TRIPOS>BOND
     1     1     2 ar  
     2     1     9 ar  
     3     2     3 1   
     4     2     4 ar  
     5     3    29 1   
     6     3    30 1   
     7     3    31 1   
     8     4     5 1   
     9     4     6 ar  
    10     5    32 1   
    11     6     7 1   
    12     6     8 ar  
    13     7    16 1   
    14     7    33 1   
    15     7    34 1   
    16     8     9 ar  
    17     8    10 1   
    18     9    35 1   
    19    10    11 1   
    20    10    36 1   
    21    10    37 1   
    22    11    12 1   
    23    12    13 1   
    24    12    14 1   
    25    12    15 1   
    26    16    18 1   
    27    16    38 1   
    28    17    18 1   
    29    17    39 1   
    30    17    40 1   
    31    17    41 1   
    32    18    19 1   
    33    18    42 1   
    34    19    20 2   
    35    19    21 1   
    36    21    22 1   
    37    21    43 1   
    38    21    44 1   
    39    22    23 1   
    40    22    45 1   
    41    22    46 1   
    42    23    24 1   
    43    23    47 1   
    44    23    48 1   
    45    24    25 1   
    46    24    49 1   
    47    24    50 1   
    48    25    26 1   
    49    25    51 1   
    50    25    52 1   
    51    26    27 1   
    52    26    28 1   
@<TRIPOS>SUBSTRUCTURE
     1 KAM         1 TEMP              0 ****  ****    0 ROOT
