@<TRIPOS>MOLECULE
KAO
   59    62     1     0     0
SMALL
bcc


@<TRIPOS>ATOM
      1 N1           0.0000     0.0000     0.0000 na         1 KAO       0.581300
      2 C2           1.3610     0.0000     0.0000 cc         1 KAO      -0.235700
      3 C3           1.7680     0.0000     1.2990 cd         1 KAO      -0.332300
      4 C4           0.6270    -0.0000     2.1070 cd         1 KAO       0.391600
      5 N5          -0.4290     0.0050     1.3340 nc         1 KAO      -0.652800
      6 N6           2.1870    -0.0010    -1.1240 ns         1 KAO      -0.023100
      7 C7           3.5260    -0.0010    -0.9760 c          1 KAO       0.554100
      8 C8           0.6150    -0.0010     3.6140 c3         1 KAO      -0.081300
      9 C9           0.9850     1.3910     4.1280 c3         1 KAO       0.006900
     10 C10         -0.7830    -0.3740     4.1120 c3         1 KAO       0.006900
     11 C11          1.6300    -1.0230     4.1310 c3         1 KAO       0.006900
     12 C12         -0.8260     0.0000    -1.1330 ca         1 KAO      -0.136200
     13 C13         -0.4380     0.6860    -2.2760 ca         1 KAO      -0.110000
     14 C14         -1.2540     0.6850    -3.3910 ca         1 KAO      -0.082500
     15 C15         -2.4560     0.0020    -3.3680 ca         1 KAO      -0.090300
     16 C16         -2.8460    -0.6810    -2.2300 ca         1 KAO      -0.082500
     17 C17         -2.0310    -0.6880    -1.1150 ca         1 KAO      -0.110000
     18 C18         -3.3450     0.0040    -4.5860 c3         1 KAO       0.063200
     19 O19          4.0140    -0.0000     0.1380 o          1 KAO      -0.669100
     20 N20          4.3240    -0.0010    -2.0620 ns         1 KAO      -0.048100
     21 C21          5.7100     0.1110    -1.9120 ca         1 KAO      -0.073400
     22 C22          6.5580    -0.5390    -2.7990 ca         1 KAO      -0.114000
     23 C23          7.9250    -0.4300    -2.6530 ca         1 KAO      -0.078000
     24 C24          8.4550     0.3340    -1.6140 cp         1 KAO      -0.044000
     25 C25          7.6010     0.9860    -0.7250 ca         1 KAO      -0.078000
     26 C26          6.2360     0.8780    -0.8780 ca         1 KAO      -0.114000
     27 C27          9.9250     0.4520    -1.4540 cp         1 KAO      -0.143300
     28 C28         10.4670     1.2150    -0.4170 ca         1 KAO      -0.070000
     29 C29         11.8450     1.2940    -0.3110 ca         1 KAO      -0.216300
     30 C30         12.6340     0.6220    -1.2260 ca         1 KAO       0.399200
     31 N31         12.0930    -0.0910    -2.1960 nb         1 KAO      -0.579000
     32 C32         10.7880    -0.1990    -2.3330 ca         1 KAO       0.400200
     33 H1           2.7950    -0.0020     1.6450 ha         1 KAO       0.193000
     34 H2           1.7850    -0.0420    -2.0390 hn         1 KAO       0.170500
     35 H3           0.3080     2.1240     3.7040 hc         1 KAO       0.007922
     36 H4           2.0010     1.6260     3.8350 hc         1 KAO       0.007922
     37 H5           0.9070     1.4100     5.2080 hc         1 KAO       0.007922
     38 H6          -1.0620    -1.3420     3.7130 hc         1 KAO       0.007922
     39 H7          -0.7810    -0.4170     5.1950 hc         1 KAO       0.007922
     40 H8          -1.4950     0.3720     3.7810 hc         1 KAO       0.007922
     41 H9           2.6340    -0.6660     3.9330 hc         1 KAO       0.007922
     42 H10          1.4980    -1.1550     5.1980 hc         1 KAO       0.007922
     43 H11          1.4780    -1.9700     3.6280 hc         1 KAO       0.007922
     44 H12          0.5040     1.2200    -2.2940 ha         1 KAO       0.120500
     45 H13         -0.9510     1.2190    -4.2830 ha         1 KAO       0.110000
     46 H14         -3.7880    -1.2170    -2.2170 ha         1 KAO       0.110000
     47 H15         -2.3370    -1.2240    -0.2240 ha         1 KAO       0.120500
     48 H16         -4.3180    -0.3910    -4.3230 hc         1 KAO       0.010033
     49 H17         -3.4540     1.0180    -4.9520 hc         1 KAO       0.010033
     50 H18         -2.9010    -0.6120    -5.3580 hc         1 KAO       0.010033
     51 H19          3.9220    -0.0530    -2.9770 hn         1 KAO       0.160500
     52 H20          6.1460    -1.1320    -3.6060 ha         1 KAO       0.124000
     53 H21          8.5870    -0.9370    -3.3450 ha         1 KAO       0.112500
     54 H22          8.0110     1.5810     0.0820 ha         1 KAO       0.112500
     55 H23          5.5720     1.3840    -0.1880 ha         1 KAO       0.124000
     56 H24          9.8250     1.7320     0.2870 ha         1 KAO       0.117000
     57 H25         12.3010     1.8760     0.4810 ha         1 KAO       0.112000
     58 H26         13.7120     0.6830    -1.1470 h4         1 KAO      -0.020900
     59 H27         10.3810    -0.7930    -3.1430 h4         1 KAO      -0.013900
@<TRIPOS>BOND
     1     1     2 1   
     2     1     5 1   
     3     1    12 1   
     4     2     3 2   
     5     2     6 1   
     6     3     4 1   
     7     3    33 1   
     8     4     5 2   
     9     4     8 1   
    10     6     7 1   
    11     6    34 1   
    12     7    19 2   
    13     7    20 1   
    14     8     9 1   
    15     8    10 1   
    16     8    11 1   
    17     9    35 1   
    18     9    36 1   
    19     9    37 1   
    20    10    38 1   
    21    10    39 1   
    22    10    40 1   
    23    11    41 1   
    24    11    42 1   
    25    11    43 1   
    26    12    13 ar  
    27    12    17 ar  
    28    13    14 ar  
    29    13    44 1   
    30    14    15 ar  
    31    14    45 1   
    32    15    16 ar  
    33    15    18 1   
    34    16    17 ar  
    35    16    46 1   
    36    17    47 1   
    37    18    48 1   
    38    18    49 1   
    39    18    50 1   
    40    20    21 1   
    41    20    51 1   
    42    21    22 ar  
    43    21    26 ar  
    44    22    23 ar  
    45    22    52 1   
    46    23    24 ar  
    47    23    53 1   
    48    24    25 ar  
    49    24    27 1   
    50    25    26 ar  
    51    25    54 1   
    52    26    55 1   
    53    27    28 ar  
    54    27    32 ar  
    55    28    29 ar  
    56    28    56 1   
    57    29    30 ar  
    58    29    57 1   
    59    30    31 ar  
    60    30    58 1   
    61    31    32 ar  
    62    32    59 1   
@<TRIPOS>SUBSTRUCTURE
     1 KAO         1 TEMP              0 ****  ****    0 ROOT
