@<TRIPOS>MOLECULE
molecule
   59    62     1     0     0
SMALL
bcc


@<TRIPOS>ATOM
      1 N1           0.0000     0.0000     0.0000 na         1 KAO       0.116300
      2 C2           1.3610     0.0000     0.0000 cc         1 KAO       0.078300
      3 C3           1.7680     0.0000     1.2990 cc         1 KAO      -0.340300
      4 C4           0.6270    -0.0000     2.1070 cc         1 KAO       0.367600
      5 N5          -0.4290     0.0050     1.3340 nd         1 KAO      -0.503800
      6 N6           2.1870    -0.0010    -1.1240 ns         1 KAO      -0.470100
      7 C7           3.5260    -0.0010    -0.9760 c          1 KAO       0.788100
      8 C8           0.6150    -0.0010     3.6140 c3         1 KAO      -0.083300
      9 C9           0.9850     1.3910     4.1280 c3         1 KAO      -0.080433
     10 C10         -0.7830    -0.3740     4.1120 c3         1 KAO      -0.080433
     11 C11          1.6300    -1.0230     4.1310 c3         1 KAO      -0.080433
     12 C12         -0.8260     0.0000    -1.1330 ca         1 KAO       0.037800
     13 C13         -0.4380     0.6860    -2.2760 ca         1 KAO      -0.144500
     14 C14         -1.2540     0.6850    -3.3910 ca         1 KAO      -0.109000
     15 C15         -2.4560     0.0020    -3.3680 ca         1 KAO      -0.092300
     16 C16         -2.8460    -0.6810    -2.2300 ca         1 KAO      -0.109000
     17 C17         -2.0310    -0.6880    -1.1150 ca         1 KAO      -0.144500
     18 C18         -3.3450     0.0040    -4.5860 c3         1 KAO      -0.047800
     19 O19          4.0140    -0.0000     0.1380 o          1 KAO      -0.621100
     20 N20          4.3240    -0.0010    -2.0620 ns         1 KAO      -0.487100
     21 C21          5.7100     0.1110    -1.9120 ca         1 KAO       0.074600
     22 C22          6.5580    -0.5390    -2.7990 ca         1 KAO      -0.141000
     23 C23          7.9250    -0.4300    -2.6530 ca         1 KAO      -0.101000
     24 C24          8.4550     0.3340    -1.6140 cp         1 KAO      -0.051000
     25 C25          7.6010     0.9860    -0.7250 ca         1 KAO      -0.101000
     26 C26          6.2360     0.8780    -0.8780 ca         1 KAO      -0.141000
     27 C27          9.9250     0.4520    -1.4540 cp         1 KAO      -0.154300
     28 C28         10.4670     1.2150    -0.4170 ca         1 KAO      -0.088000
     29 C29         11.8450     1.2940    -0.3110 ca         1 KAO      -0.250300
     30 C30         12.6340     0.6220    -1.2260 ca         1 KAO       0.416200
     31 N31         12.0930    -0.0910    -2.1960 nb         1 KAO      -0.687000
     32 C32         10.7880    -0.1990    -2.3330 ca         1 KAO       0.424200
     33 H1           2.7950    -0.0020     1.6450 ha         1 KAO       0.202000
     34 H2           1.7850    -0.0420    -2.0390 hn         1 KAO       0.326500
     35 H3           0.3080     2.1240     3.7040 hc         1 KAO       0.039700
     36 H4           2.0010     1.6260     3.8350 hc         1 KAO       0.039700
     37 H5           0.9070     1.4100     5.2080 hc         1 KAO       0.039700
     38 H6          -1.0620    -1.3420     3.7130 hc         1 KAO       0.039700
     39 H7          -0.7810    -0.4170     5.1950 hc         1 KAO       0.039700
     40 H8          -1.4950     0.3720     3.7810 hc         1 KAO       0.039700
     41 H9           2.6340    -0.6660     3.9330 hc         1 KAO       0.039700
     42 H10          1.4980    -1.1550     5.1980 hc         1 KAO       0.039700
     43 H11          1.4780    -1.9700     3.6280 hc         1 KAO       0.039700
     44 H12          0.5040     1.2200    -2.2940 ha         1 KAO       0.145500
     45 H13         -0.9510     1.2190    -4.2830 ha         1 KAO       0.137500
     46 H14         -3.7880    -1.2170    -2.2170 ha         1 KAO       0.137500
     47 H15         -2.3370    -1.2240    -0.2240 ha         1 KAO       0.145500
     48 H16         -4.3180    -0.3910    -4.3230 hc         1 KAO       0.045033
     49 H17         -3.4540     1.0180    -4.9520 hc         1 KAO       0.045033
     50 H18         -2.9010    -0.6120    -5.3580 hc         1 KAO       0.045033
     51 H19          3.9220    -0.0530    -2.9770 hn         1 KAO       0.320500
     52 H20          6.1460    -1.1320    -3.6060 ha         1 KAO       0.148500
     53 H21          8.5870    -0.9370    -3.3450 ha         1 KAO       0.137500
     54 H22          8.0110     1.5810     0.0820 ha         1 KAO       0.137500
     55 H23          5.5720     1.3840    -0.1880 ha         1 KAO       0.148500
     56 H24          9.8250     1.7320     0.2870 ha         1 KAO       0.141000
     57 H25         12.3010     1.8760     0.4810 ha         1 KAO       0.139000
     58 H26         13.7120     0.6830    -1.1470 h4         1 KAO       0.023100
     59 H27         10.3810    -0.7930    -3.1430 h4         1 KAO       0.024100
@<TRIPOS>BOND
     1    10     8 1
     2     9     8 1
     3    11     8 1
     4     8     4 1
     5     4     3 1
     6     4     5 2
     7     3     2 2
     8     5     1 1
     9     2     1 1
    10     2     6 1
    11     1    12 1
    12    19     7 2
    13    13    12 ar
    14    13    14 ar
    15    26    25 ar
    16    26    21 ar
    17     6     7 1
    18     7    20 1
    19    25    24 ar
    20    12    17 ar
    21    32    31 ar
    22    32    27 ar
    23    31    30 ar
    24    20    21 1
    25    14    15 ar
    26    21    22 ar
    27    24    27 1
    28    24    23 ar
    29    17    16 ar
    30    27    28 ar
    31    30    29 ar
    32    15    16 ar
    33    15    18 1
    34    22    23 ar
    35    28    29 ar
    36     3    33 1
    37     6    34 1
    38     9    35 1
    39     9    36 1
    40     9    37 1
    41    10    38 1
    42    10    39 1
    43    10    40 1
    44    11    41 1
    45    11    42 1
    46    11    43 1
    47    13    44 1
    48    14    45 1
    49    16    46 1
    50    17    47 1
    51    18    48 1
    52    18    49 1
    53    18    50 1
    54    20    51 1
    55    22    52 1
    56    23    53 1
    57    25    54 1
    58    26    55 1
    59    28    56 1
    60    29    57 1
    61    30    58 1
    62    32    59 1
@<TRIPOS>SUBSTRUCTURE
     1 KAO         1 TEMP              0 ****  ****    0 ROOT
