@<TRIPOS>MOLECULE
KAP
   30    29     1     0     0
SMALL
bcc


@<TRIPOS>ATOM
      1 CA           0.0000     0.0000     0.0000 c3         1 KAP      -0.134400
      2 C            1.5060     0.0000     0.0000 c          1 KAP       0.977600
      3 OI1          2.1790     0.0000     1.1600 o          1 KAP      -0.895800
      4 OI2          2.1100    -0.0010    -1.0470 o          1 KAP      -0.895800
      5 CB          -0.5120    -0.0010    -1.4410 c3         1 KAP      -0.013400
      6 CG          -2.0400    -0.0010    -1.4400 c3         1 KAP      -0.035400
      7 CD          -2.5520    -0.0030    -2.8810 c3         1 KAP      -0.023400
      8 CE          -4.0810    -0.0020    -2.8800 c3         1 KAP      -0.098400
      9 CZ          -4.5850    -0.0040    -4.3000 c          1 KAP       0.593100
     10 CH          -6.0670    -0.0030    -4.5750 c3         1 KAP      -0.194500
     11 CS          -6.5690    -1.4450    -4.6660 c3         1 KAP       0.012900
     12 O           -3.8020    -0.0040    -5.2190 o          1 KAP      -0.513100
     13 N           -6.3310     0.6880    -5.8430 nz         1 KAP       0.088400
     14 HA2         -0.3610     0.8850     0.5110 hc         1 KAP       0.005200
     15 HA1         -0.3610    -0.8840     0.5110 hc         1 KAP       0.005200
     16 HB2         -0.1500    -0.8850    -1.9520 hc         1 KAP       0.025200
     17 HB1         -0.1510     0.8840    -1.9520 hc         1 KAP       0.025200
     18 HG2         -2.4020     0.8830    -0.9300 hc         1 KAP       0.007700
     19 HG1         -2.4010    -0.8860    -0.9280 hc         1 KAP       0.007700
     20 HD2         -2.1920    -0.8880    -3.3910 hc         1 KAP       0.031200
     21 HD1         -2.1910     0.8810    -3.3940 hc         1 KAP       0.031200
     22 HE2         -4.4420    -0.8850    -2.3680 hc         1 KAP       0.047200
     23 HE1         -4.4410     0.8840    -2.3700 hc         1 KAP       0.047200
     24 HH          -6.5830     0.5080    -3.7710 hx         1 KAP       0.100700
     25 HS3         -6.9300    -1.7640    -3.6960 hc         1 KAP       0.040367
     26 HS2         -5.7570    -2.0910    -4.9790 hc         1 KAP       0.040367
     27 HS1         -7.3740    -1.5030    -5.3880 hc         1 KAP       0.040367
     28 H1          -7.3190     0.7720    -5.9790 hn         1 KAP       0.226800
     29 H2          -5.9190     1.6010    -5.8170 hn         1 KAP       0.226800
     30 HN3         -5.9330     0.1650    -6.5970 hn         1 KAP       0.226800
@<TRIPOS>BOND
     1     1     2 1   
     2     1     5 1   
     3     1    14 1   
     4     1    15 1   
     5     2     3 1   
     6     2     4 1   
     7     5     6 1   
     8     5    16 1   
     9     5    17 1   
    10     6     7 1   
    11     6    18 1   
    12     6    19 1   
    13     7     8 1   
    14     7    20 1   
    15     7    21 1   
    16     8     9 1   
    17     8    22 1   
    18     8    23 1   
    19     9    10 1   
    20     9    12 2   
    21    10    11 1   
    22    10    13 1   
    23    10    24 1   
    24    11    25 1   
    25    11    26 1   
    26    11    27 1   
    27    13    28 1   
    28    13    29 1   
    29    13    30 1   
@<TRIPOS>SUBSTRUCTURE
     1 KAP         1 TEMP              0 ****  ****    0 ROOT
