@<TRIPOS>MOLECULE
molecule
   34    36     1     0     0
SMALL
bcc


@<TRIPOS>ATOM
      1 CAG          0.0000     0.0000     0.0000 c3         1 KAT       0.147800
      2 CAH          1.5320     0.0000     0.0000 c3         1 KAT       0.086500
      3 NAL          2.0000     0.0000     1.3950 n          1 KAT      -0.473800
      4 CAM          2.9060     0.9030     1.8210 c          1 KAT       0.693900
      5 OAN          3.3690     1.7110     1.0430 o          1 KAT      -0.613100
      6 CAI          1.4510    -1.0110     2.3120 c3         1 KAT       0.086500
      7 CAJ         -0.0780    -0.9710     2.2210 c3         1 KAT       0.147800
      8 NAK         -0.4860    -1.1200     0.8180 nh         1 KAT      -0.599000
      9 CAF         -1.8720    -1.2530     0.7110 ca         1 KAT       0.101600
     10 CAA         -2.5310    -2.2570     1.4090 ca         1 KAT      -0.166000
     11 CAB         -3.9010    -2.3860     1.3010 ca         1 KAT      -0.103500
     12 CAC         -4.6190    -1.5170     0.4990 ca         1 KAT      -0.152000
     13 CAD         -3.9660    -0.5160    -0.1970 ca         1 KAT      -0.103500
     14 CAE         -2.5960    -0.3790    -0.0900 ca         1 KAT      -0.166000
     15 H1          -0.3600    -0.1120    -1.0150 h1         1 KAT       0.053200
     16 H2          -0.3600     0.9330     0.4160 h1         1 KAT       0.053200
     17 H3           1.8950    -0.8870    -0.5050 h1         1 KAT       0.084950
     18 H4           1.8950     0.8870    -0.5050 h1         1 KAT       0.084950
     19 H6           1.7600    -0.7880     3.3260 h1         1 KAT       0.084950
     20 H7           1.8070    -1.9930     2.0250 h1         1 KAT       0.084950
     21 H8          -0.4950    -1.7820     2.8050 h1         1 KAT       0.053200
     22 H9          -0.4370    -0.0220     2.6010 h1         1 KAT       0.053200
     23 H10         -1.9710    -2.9390     2.0380 ha         1 KAT       0.135000
     24 H11         -4.4160    -3.1690     1.8460 ha         1 KAT       0.130500
     25 H12         -5.6940    -1.6220     0.4150 ha         1 KAT       0.130000
     26 H13         -4.5300     0.1640    -0.8230 ha         1 KAT       0.130500
     27 H14         -2.0850     0.4050    -0.6360 ha         1 KAT       0.135000
     28 N1           3.2980     0.9050     3.1100 n          1 KAT       0.066300
     29 C2           4.1050     1.8240     3.7190 cc         1 KAT      -0.157600
     30 C1           4.2330     1.4380     5.0050 cd         1 KAT       0.243200
     31 N3           3.5320     0.3170     5.1940 nd         1 KAT      -0.315000
     32 N2           2.9560    -0.0320     4.0970 nc         1 KAT      -0.198800
     33 H5           4.5550     2.6950     3.2580 h4         1 KAT       0.204000
     34 H15          4.8140     1.9520     5.7610 h4         1 KAT       0.057100
@<TRIPOS>BOND
     1     5     4 2
     2     2     1 1
     3     2     3 1
     4     1     8 1
     5     4     3 1
     6     3     6 1
     7    14    13 ar
     8    14     9 ar
     9     8     9 1
    10     8     7 1
    11    13    12 ar
    12     9    10 ar
    13     6     7 1
    14    12    11 ar
    15    10    11 ar
    16     1    15 1
    17     1    16 1
    18     2    17 1
    19     2    18 1
    20     6    19 1
    21     6    20 1
    22     7    21 1
    23     7    22 1
    24    10    23 1
    25    11    24 1
    26    12    25 1
    27    13    26 1
    28    14    27 1
    29     4    28 1
    30    28    29 1
    31    29    30 2
    32    30    31 1
    33    31    32 2
    34    32    28 1
    35    29    33 1
    36    30    34 1
@<TRIPOS>SUBSTRUCTURE
     1 KAT         1 TEMP              0 ****  ****    0 ROOT
