@<TRIPOS>MOLECULE
KAT
   34    36     1     0     0
SMALL
bcc


@<TRIPOS>ATOM
      1 CAG          0.0000     0.0000     0.0000 c3         1 KAT       0.125300
      2 CAH          1.5320     0.0000     0.0000 c3         1 KAT      -0.007000
      3 NAL          2.0000     0.0000     1.3950 n          1 KAT      -0.108800
      4 CAM          2.9060     0.9030     1.8210 c          1 KAT       0.482900
      5 OAN          3.3690     1.7110     1.0430 o          1 KAT      -0.660100
      6 CAI          1.4510    -1.0110     2.3120 c3         1 KAT      -0.007000
      7 CAJ         -0.0780    -0.9710     2.2210 c3         1 KAT       0.125300
      8 NAK         -0.4860    -1.1200     0.8180 nh         1 KAT      -0.363000
      9 CAF         -1.8720    -1.2530     0.7110 ca         1 KAT       0.019600
     10 CAA         -2.5310    -2.2570     1.4090 ca         1 KAT      -0.147500
     11 CAB         -3.9010    -2.3860     1.3010 ca         1 KAT      -0.073000
     12 CAC         -4.6190    -1.5170     0.4990 ca         1 KAT      -0.126000
     13 CAD         -3.9660    -0.5160    -0.1970 ca         1 KAT      -0.073000
     14 CAE         -2.5960    -0.3790    -0.0900 ca         1 KAT      -0.147500
     15 H1          -0.3600    -0.1120    -1.0150 h1         1 KAT       0.027700
     16 H2          -0.3600     0.9330     0.4160 h1         1 KAT       0.027700
     17 H3           1.8950    -0.8870    -0.5050 h1         1 KAT       0.062700
     18 H4           1.8950     0.8870    -0.5050 h1         1 KAT       0.062700
     19 H6           1.7600    -0.7880     3.3260 h1         1 KAT       0.062700
     20 H7           1.8070    -1.9930     2.0250 h1         1 KAT       0.062700
     21 H8          -0.4950    -1.7820     2.8050 h1         1 KAT       0.027700
     22 H9          -0.4370    -0.0220     2.6010 h1         1 KAT       0.027700
     23 H10         -1.9710    -2.9390     2.0380 ha         1 KAT       0.118000
     24 H11         -4.4160    -3.1690     1.8460 ha         1 KAT       0.101500
     25 H12         -5.6940    -1.6220     0.4150 ha         1 KAT       0.104000
     26 H13         -4.5300     0.1640    -0.8230 ha         1 KAT       0.101500
     27 H14         -2.0850     0.4050    -0.6360 ha         1 KAT       0.118000
     28 N1           3.2980     0.9050     3.1100 n          1 KAT       0.493300
     29 C2           4.1050     1.8240     3.7190 cc         1 KAT      -0.282600
     30 C1           4.2330     1.4380     5.0050 cd         1 KAT       0.249200
     31 N3           3.5320     0.3170     5.1940 nd         1 KAT      -0.235000
     32 N2           2.9560    -0.0320     4.0970 nc         1 KAT      -0.365800
     33 H5           4.5550     2.6950     3.2580 h4         1 KAT       0.173000
     34 H15          4.8140     1.9520     5.7610 h4         1 KAT       0.018100
@<TRIPOS>BOND
     1     1     2 1   
     2     1     8 1   
     3     1    15 1   
     4     1    16 1   
     5     2     3 1   
     6     2    17 1   
     7     2    18 1   
     8     3     4 1   
     9     3     6 1   
    10     4     5 2   
    11     4    28 1   
    12     6     7 1   
    13     6    19 1   
    14     6    20 1   
    15     7     8 1   
    16     7    21 1   
    17     7    22 1   
    18     8     9 1   
    19     9    10 ar  
    20     9    14 ar  
    21    10    11 ar  
    22    10    23 1   
    23    11    12 ar  
    24    11    24 1   
    25    12    13 ar  
    26    12    25 1   
    27    13    14 ar  
    28    13    26 1   
    29    14    27 1   
    30    28    29 1   
    31    28    32 1   
    32    29    30 2   
    33    29    33 1   
    34    30    31 1   
    35    30    34 1   
    36    31    32 2   
@<TRIPOS>SUBSTRUCTURE
     1 KAT         1 TEMP              0 ****  ****    0 ROOT
