@<TRIPOS>MOLECULE
KAW
   69    72     1     0     0
SMALL
bcc


@<TRIPOS>ATOM
      1 CD2          0.0000     0.0000     0.0000 ca         1 KAW      -0.095800
      2 CE3          1.3960     0.0000     0.0000 ca         1 KAW      -0.040000
      3 CZ3          2.0750     0.0000     1.1870 ca         1 KAW      -0.153000
      4 CH2          1.3860    -0.0000     2.3920 ca         1 KAW      -0.097000
      5 CZ2          0.0090     0.0000     2.4140 ca         1 KAW      -0.112000
      6 CE2         -0.7010     0.0000     1.2190 ca         1 KAW      -0.227200
      7 NE1         -2.0450     0.0000     0.9150 na         1 KAW       0.339600
      8 CD1         -2.2140     0.0010    -0.4430 cc         1 KAW      -0.277100
      9 CG          -1.0180     0.0060    -1.0530 cd         1 KAW      -0.114400
     10 CB          -0.7700     0.0140    -2.5400 c3         1 KAW       0.062800
     11 CA          -0.5630    -1.4210    -3.0290 c3         1 KAW      -0.097300
     12 C           -0.4380    -1.4260    -4.5310 c          1 KAW       0.974600
     13 O            0.5700    -1.8440    -5.0520 o          1 KAW      -0.889300
     14 OXT         -1.4450    -0.9660    -5.2910 o          1 KAW      -0.889300
     15 N            0.6590    -1.9680    -2.4360 ns         1 KAW      -0.139900
     16 CBC          0.7990    -3.3000    -2.2910 c          1 KAW       0.575100
     17 OAA         -0.0850    -4.0470    -2.6510 o          1 KAW      -0.667100
     18 CAV          2.0570    -3.8630    -1.6790 c3         1 KAW      -0.109400
     19 CAW          1.9620    -5.3890    -1.6310 c3         1 KAW      -0.042400
     20 CBM          3.2380    -5.9610    -1.0110 c3         1 KAW       0.369600
     21 OAE          4.3650    -5.5790    -1.8020 oh         1 KAW      -0.608800
     22 OAF          3.3930    -5.4510     0.3160 oh         1 KAW      -0.608800
     23 CBL          3.1430    -7.4880    -0.9620 c3         1 KAW       0.001700
     24 CAX          2.0130    -7.8970    -0.0140 c3         1 KAW       0.007900
     25 CBF          1.8390    -9.3940    -0.0590 ca         1 KAW      -0.069300
     26 CAO          2.5490   -10.2000     0.8110 ca         1 KAW      -0.091000
     27 CAI          2.3890   -11.5720     0.7680 ca         1 KAW      -0.096500
     28 CAG          1.5170   -12.1390    -0.1430 ca         1 KAW      -0.109000
     29 CAJ          0.8060   -11.3320    -1.0120 ca         1 KAW      -0.096500
     30 CAP          0.9630    -9.9600    -0.9680 ca         1 KAW      -0.091000
     31 NBA          4.4100    -8.0410    -0.4790 ns         1 KAW      -0.175900
     32 CBE          4.7660    -9.2980    -0.8090 c          1 KAW       0.588700
     33 OAC          4.0340    -9.9740    -1.5060 o          1 KAW      -0.637100
     34 CBG          6.0450    -9.8570    -0.3210 ca         1 KAW      -0.143600
     35 CAQ          6.4160   -11.1590    -0.6610 ca         1 KAW      -0.061500
     36 CAK          7.6110   -11.6740    -0.2040 ca         1 KAW      -0.115500
     37 CAH          8.4410   -10.9040     0.5910 ca         1 KAW      -0.088000
     38 CAL          8.0790    -9.6110     0.9300 ca         1 KAW      -0.115500
     39 CAR          6.8900    -9.0820     0.4750 ca         1 KAW      -0.061500
     40 HE3          1.9400     0.0000    -0.9370 ha         1 KAW       0.108000
     41 HZ3          3.1580    -0.0000     1.1860 ha         1 KAW       0.093000
     42 HH2          1.9380    -0.0000     3.3250 ha         1 KAW       0.090000
     43 HZ2         -0.5190    -0.0000     3.3600 ha         1 KAW       0.090000
     44 HNE1        -2.7870    -0.0030     1.5870 hn         1 KAW       0.105700
     45 HD1         -3.1710    -0.0000    -0.9510 h4         1 KAW       0.148000
     46 HB          -1.6230     0.4490    -3.0460 hc         1 KAW       0.031700
     47 HBA          0.1150     0.6000    -2.7550 hc         1 KAW       0.031700
     48 HA          -1.4100    -2.0290    -2.7350 h1         1 KAW       0.057700
     49 HN           1.4140    -1.3570    -2.1950 hn         1 KAW       0.156500
     50 HAV          2.9120    -3.5740    -2.2790 hc         1 KAW       0.024700
     51 HAVA         2.1750    -3.4770    -0.6740 hc         1 KAW       0.024700
     52 HAW          1.8450    -5.7760    -2.6360 hc         1 KAW       0.053700
     53 HAWA         1.1080    -5.6790    -1.0300 hc         1 KAW       0.053700
     54 HBL          2.9380    -7.8690    -1.9550 h1         1 KAW       0.080700
     55 HAX          1.0920    -7.4170    -0.3210 hc         1 KAW       0.038700
     56 HAXA         2.2600    -7.5930     0.9950 hc         1 KAW       0.038700
     57 HAO          3.2320    -9.7560     1.5250 ha         1 KAW       0.104000
     58 HAI          2.9460   -12.2040     1.4500 ha         1 KAW       0.093500
     59 HAG          1.3920   -13.2140    -0.1770 ha         1 KAW       0.092000
     60 HAJ          0.1210   -11.7760    -1.7250 ha         1 KAW       0.093500
     61 HAP          0.4060    -9.3280    -1.6490 ha         1 KAW       0.104000
     62 HNBA         5.0250    -7.4760     0.0730 hn         1 KAW       0.171500
     63 HAQ          5.7670   -11.7630    -1.2830 ha         1 KAW       0.115500
     64 HAK          7.9000   -12.6850    -0.4670 ha         1 KAW       0.101000
     65 HAH          9.3780   -11.3130     0.9490 ha         1 KAW       0.097000
     66 HAL          8.7350    -9.0120     1.5500 ha         1 KAW       0.101000
     67 HAR          6.6090    -8.0710     0.7420 ha         1 KAW       0.115500
     68 H29          4.1310    -4.8650     0.3430 ho         1 KAW       0.392000
     69 H30          4.9470    -5.0480    -1.2840 ho         1 KAW       0.392000
@<TRIPOS>BOND
     1     1     2 ar  
     2     1     6 ar  
     3     1     9 1   
     4     2     3 ar  
     5     2    40 1   
     6     3     4 ar  
     7     3    41 1   
     8     4     5 ar  
     9     4    42 1   
    10     5     6 ar  
    11     5    43 1   
    12     6     7 1   
    13     7     8 1   
    14     7    44 1   
    15     8     9 2   
    16     8    45 1   
    17     9    10 1   
    18    10    11 1   
    19    10    46 1   
    20    10    47 1   
    21    11    12 1   
    22    11    15 1   
    23    11    48 1   
    24    12    13 1   
    25    12    14 1   
    26    15    16 1   
    27    15    49 1   
    28    16    17 2   
    29    16    18 1   
    30    18    19 1   
    31    18    50 1   
    32    18    51 1   
    33    19    20 1   
    34    19    52 1   
    35    19    53 1   
    36    20    21 1   
    37    20    22 1   
    38    20    23 1   
    39    21    69 1   
    40    22    68 1   
    41    23    24 1   
    42    23    31 1   
    43    23    54 1   
    44    24    25 1   
    45    24    55 1   
    46    24    56 1   
    47    25    26 ar  
    48    25    30 ar  
    49    26    27 ar  
    50    26    57 1   
    51    27    28 ar  
    52    27    58 1   
    53    28    29 ar  
    54    28    59 1   
    55    29    30 ar  
    56    29    60 1   
    57    30    61 1   
    58    31    32 1   
    59    31    62 1   
    60    32    33 2   
    61    32    34 1   
    62    34    35 ar  
    63    34    39 ar  
    64    35    36 ar  
    65    35    63 1   
    66    36    37 ar  
    67    36    64 1   
    68    37    38 ar  
    69    37    65 1   
    70    38    39 ar  
    71    38    66 1   
    72    39    67 1   
@<TRIPOS>SUBSTRUCTURE
     1 KAW         1 TEMP              0 ****  ****    0 ROOT
