@<TRIPOS>MOLECULE
molecule
   42    45     1     0     0
SMALL
bcc


@<TRIPOS>ATOM
      1 C4           0.0000     0.0000     0.0000 ca         1 KB0      -0.052300
      2 C5           1.3770     0.0000     0.0000 ca         1 KB0      -0.105300
      3 C6           2.0840     0.0000     1.2050 ca         1 KB0      -0.042800
      4 C7           2.4020    -0.0010    -1.1080 c3         1 KB0       0.006100
      5 C8           3.7480    -0.0010    -0.4220 ce         1 KB0      -0.067400
      6 C10          5.4510    -1.1000    -1.8610 ca         1 KB0      -0.098500
      7 C13          7.1430     1.0880    -1.5770 ca         1 KB0      -0.154000
      8 C15          3.5320    -0.0010     0.9140 cf         1 KB0      -0.003400
      9 C20          5.4580    -1.0950     2.0570 ca         1 KB0      -0.111000
     10 C21          6.4530    -1.0870     3.0110 ca         1 KB0      -0.129500
     11 C22          6.5980    -0.0000     3.8550 ca         1 KB0      -0.125000
     12 C24          4.7500     1.0920     2.7940 ca         1 KB0      -0.111000
     13 C1           1.3800    -0.0000     2.4110 ca         1 KB0      -0.132000
     14 C2          -0.0030     0.0000     2.4010 ca         1 KB0       0.105100
     15 C3          -0.6940     0.0050     1.1960 ca         1 KB0      -0.148000
     16 C9           5.0580    -0.0020    -1.0870 ca         1 KB0      -0.046800
     17 C11          6.6810    -1.0960    -2.4830 ca         1 KB0      -0.154000
     18 C12          7.5290    -0.0050    -2.3430 ca         1 KB0       0.107100
     19 C14          5.9170     1.0940    -0.9500 ca         1 KB0      -0.098500
     20 C16         -0.7510     0.0000    -1.3070 c3         1 KB0      -0.047800
     21 O17         -0.6900    -0.0000     3.5750 oh         1 KB0      -0.521100
     22 O18          8.7400    -0.0060    -2.9590 oh         1 KB0      -0.523100
     23 C19          4.5990    -0.0020     1.9400 ca         1 KB0      -0.045800
     24 C23          5.7460     1.0850     3.7490 ca         1 KB0      -0.129500
     25 H2           2.2930    -0.8910    -1.7150 hc         1 KB0       0.073700
     26 H3           2.2940     0.8900    -1.7160 hc         1 KB0       0.073700
     27 H5           7.8090     1.9360    -1.4710 ha         1 KB0       0.141500
     28 H6           5.3460    -1.9470     1.3970 ha         1 KB0       0.135000
     29 H7           7.1220    -1.9340     3.1020 ha         1 KB0       0.130500
     30 H8           7.3800    -0.0000     4.6050 ha         1 KB0       0.129000
     31 H9           4.0830     1.9410     2.7110 ha         1 KB0       0.135000
     32 H10          1.9160    -0.0040     3.3520 ha         1 KB0       0.147000
     33 H11         -1.7780     0.0060     1.1930 ha         1 KB0       0.143000
     34 H13          6.9860    -1.9460    -3.0820 ha         1 KB0       0.141500
     35 H14          5.6170     1.9470    -0.3530 ha         1 KB0       0.138500
     36 H15         -0.4880    -0.8830    -1.8750 hc         1 KB0       0.044367
     37 H16         -1.8170    -0.0020    -1.1100 hc         1 KB0       0.044367
     38 H17         -0.4900     0.8860    -1.8730 hc         1 KB0       0.044367
     39 H18         -0.8460     0.8890     3.8480 ho         1 KB0       0.418000
     40 H19          8.6560     0.3680    -3.8200 ho         1 KB0       0.419000
     41 H20          5.8640     1.9330     4.4120 ha         1 KB0       0.130500
     42 H4           4.7900    -1.9510    -1.9700 ha         1 KB0       0.138500
@<TRIPOS>BOND
     1    21    14 1
     2    14    13 ar
     3    14    15 ar
     4    24    11 ar
     5    24    12 ar
     6    13     3 ar
     7    15     1 ar
     8    11    10 ar
     9    12    23 ar
    10     3     2 ar
    11     3     8 1
    12    10     9 ar
    13    23     9 ar
    14    23     8 1
    15     1     2 ar
    16     1    20 1
    17     2     4 1
    18     8     5 2
    19     5     4 1
    20     5    16 1
    21     6    16 ar
    22     6    17 ar
    23    16    19 ar
    24    17    18 ar
    25    19     7 ar
    26    18     7 ar
    27    18    22 1
    28     4    25 1
    29     4    26 1
    30     6    42 1
    31     7    27 1
    32     9    28 1
    33    10    29 1
    34    11    30 1
    35    12    31 1
    36    13    32 1
    37    15    33 1
    38    17    34 1
    39    19    35 1
    40    20    36 1
    41    20    37 1
    42    20    38 1
    43    21    39 1
    44    22    40 1
    45    24    41 1
@<TRIPOS>SUBSTRUCTURE
     1 KB0         1 TEMP              0 ****  ****    0 ROOT
