@<TRIPOS>MOLECULE
KB1
   60    63     1     0     0
SMALL
bcc


@<TRIPOS>ATOM
      1 N6           0.0000     0.0000     0.0000 nv         1 KB1      -0.644500
      2 C6           1.3830     0.0000     0.0000 ca         1 KB1       0.600200
      3 N1           2.0630     0.0000     1.1420 nb         1 KB1      -0.664000
      4 C2           3.3840     0.0000     1.1510 ca         1 KB1       0.633900
      5 N3           4.0990     0.0010     0.0460 nb         1 KB1      -0.607000
      6 C4           3.5060     0.0020    -1.1440 ca         1 KB1       0.227800
      7 C5           2.1020    -0.0050    -1.2080 ca         1 KB1      -0.184200
      8 N7           1.7620    -0.0030    -2.5190 nc         1 KB1      -0.484100
      9 C8           2.8420     0.0040    -3.2460 cd         1 KB1       0.272700
     10 N9           3.9440     0.0020    -2.4440 na         1 KB1       0.195000
     11 CBF          5.3400     0.0040    -2.8890 c3         1 KB1       0.149800
     12 OAU          5.4420     0.5450    -4.2240 os         1 KB1      -0.382600
     13 CBE          6.7000     0.0570    -4.7380 c3         1 KB1       0.168100
     14 CAQ          6.7080     0.1140    -6.2660 c3         1 KB1       0.138800
     15 NBG          6.6410     1.5130    -6.7050 n3         1 KB1      -0.512600
     16 CAO          6.1810     1.6070    -8.0970 c3         1 KB1       0.109800
     17 CB           4.6740     1.3450    -8.1560 c3         1 KB1      -0.025400
     18 CA           4.1730     1.5660    -9.5850 c3         1 KB1      -0.201500
     19 N            4.3360     2.9810    -9.9460 nz         1 KB1       0.074400
     20 C            2.7160     1.1890    -9.6700 c          1 KB1       0.957600
     21 OXT          1.8670     2.0490    -9.6370 o          1 KB1      -0.816300
     22 O            2.3620    -0.1000    -9.7800 o          1 KB1      -0.816300
     23 CAP          7.9360     2.1840    -6.5330 c3         1 KB1       0.200100
     24 CAY          7.7690     3.6650    -6.7570 ca         1 KB1      -0.081300
     25 CAK          7.9200     4.1920    -8.0260 ca         1 KB1      -0.075500
     26 CAI          7.7680     5.5500    -8.2330 ca         1 KB1      -0.145000
     27 CAW          7.4640     6.3820    -7.1680 ca         1 KB1       0.108900
     28 FAG          7.3140     7.7100    -7.3690 f          1 KB1      -0.124900
     29 CAJ          7.3130     5.8520    -5.8980 ca         1 KB1      -0.145000
     30 CAL          7.4600     4.4930    -5.6940 ca         1 KB1      -0.075500
     31 CBC          6.7830    -1.4070    -4.2530 c3         1 KB1       0.128100
     32 OAE          8.1250    -1.7420    -3.8960 oh         1 KB1      -0.553800
     33 CBD          5.8670    -1.4430    -3.0090 c3         1 KB1       0.120100
     34 OAF          6.6170    -1.8000    -1.8460 oh         1 KB1      -0.542800
     35 H1          -0.5000    -0.8670    -0.0190 hn         1 KB1       0.282800
     36 H2          -0.5000     0.8670     0.0200 hn         1 KB1       0.282800
     37 H3           3.8460     0.0080     2.1310 h5         1 KB1      -0.000900
     38 H4           2.8620     0.0100    -4.3300 h5         1 KB1       0.045800
     39 H5           5.9590     0.5730    -2.2060 h2         1 KB1       0.068700
     40 H6           7.5200     0.6350    -4.3290 h1         1 KB1       0.044700
     41 H7           5.8530    -0.4280    -6.6520 h1         1 KB1       0.029200
     42 H8           7.6200    -0.3380    -6.6390 h1         1 KB1       0.029200
     43 H10          6.3900     2.5980    -8.4810 h1         1 KB1       0.008200
     44 H11          6.6990     0.8700    -8.6990 h1         1 KB1       0.008200
     45 H12          4.4730     0.3240    -7.8570 hc         1 KB1       0.062200
     46 H13          4.1630     2.0250    -7.4850 hc         1 KB1       0.062200
     47 H14          4.7460     0.9500   -10.2680 hx         1 KB1       0.083700
     48 H15          5.2480     3.1240   -10.3300 hn         1 KB1       0.213467
     49 H16          3.6450     3.2330   -10.6250 hn         1 KB1       0.213467
     50 H19          8.6460     1.7880    -7.2490 h1         1 KB1       0.021700
     51 H20          8.3020     2.0100    -5.5280 h1         1 KB1       0.021700
     52 H21          8.2370     3.5530    -8.8420 ha         1 KB1       0.116000
     53 H22          7.9210     5.9680    -9.2200 ha         1 KB1       0.122500
     54 H23          7.0690     6.5010    -5.0660 ha         1 KB1       0.122500
     55 H24          7.5750     4.4070    -4.6210 ha         1 KB1       0.116000
     56 H25          6.4080    -2.0790    -5.0160 h1         1 KB1       0.018700
     57 H26          8.3380    -2.5950    -4.2370 ho         1 KB1       0.391000
     58 H27          5.0460    -2.1320    -3.1640 h1         1 KB1       0.023700
     59 H28          6.4800    -2.7130    -1.6510 ho         1 KB1       0.394000
     60 HN3          4.2240     3.5490    -9.1290 hn         1 KB1       0.213467
@<TRIPOS>BOND
     1     1     2 1   
     2     1    35 1   
     3     1    36 1   
     4     2     3 ar  
     5     2     7 ar  
     6     3     4 ar  
     7     4     5 ar  
     8     4    37 1   
     9     5     6 ar  
    10     6     7 ar  
    11     6    10 1   
    12     7     8 1   
    13     8     9 2   
    14     9    10 1   
    15     9    38 1   
    16    10    11 1   
    17    11    12 1   
    18    11    33 1   
    19    11    39 1   
    20    12    13 1   
    21    13    14 1   
    22    13    31 1   
    23    13    40 1   
    24    14    15 1   
    25    14    41 1   
    26    14    42 1   
    27    15    16 1   
    28    15    23 1   
    29    16    17 1   
    30    16    43 1   
    31    16    44 1   
    32    17    18 1   
    33    17    45 1   
    34    17    46 1   
    35    18    19 1   
    36    18    20 1   
    37    18    47 1   
    38    19    48 1   
    39    19    49 1   
    40    19    60 1   
    41    20    21 1   
    42    20    22 1   
    43    23    24 1   
    44    23    50 1   
    45    23    51 1   
    46    24    25 ar  
    47    24    30 ar  
    48    25    26 ar  
    49    25    52 1   
    50    26    27 ar  
    51    26    53 1   
    52    27    28 1   
    53    27    29 ar  
    54    29    30 ar  
    55    29    54 1   
    56    30    55 1   
    57    31    32 1   
    58    31    33 1   
    59    31    56 1   
    60    32    57 1   
    61    33    34 1   
    62    33    58 1   
    63    34    59 1   
@<TRIPOS>SUBSTRUCTURE
     1 KB1         1 TEMP              0 ****  ****    0 ROOT
