@<TRIPOS>MOLECULE
molecule
   60    63     1     0     0
SMALL
bcc


@<TRIPOS>ATOM
      1 N6           0.0000     0.0000     0.0000 nv         1 KB1      -1.073500
      2 C6           1.3830     0.0000     0.0000 ca         1 KB1       0.775200
      3 N1           2.0630     0.0000     1.1420 nb         1 KB1      -0.774000
      4 C2           3.3840     0.0000     1.1510 ca         1 KB1       0.699900
      5 N3           4.0990     0.0010     0.0460 nb         1 KB1      -0.745000
      6 C4           3.5060     0.0020    -1.1440 ca         1 KB1       0.443800
      7 C5           2.1020    -0.0050    -1.2080 ca         1 KB1      -0.157200
      8 N7           1.7620    -0.0030    -2.5190 nc         1 KB1      -0.573100
      9 C8           2.8420     0.0040    -3.2460 cd         1 KB1       0.445700
     10 N9           3.9440     0.0020    -2.4440 na         1 KB1      -0.260000
     11 CBF          5.3400     0.0040    -2.8890 c3         1 KB1       0.254800
     12 OAU          5.4420     0.5450    -4.2240 os         1 KB1      -0.395600
     13 CBE          6.7000     0.0570    -4.7380 c3         1 KB1       0.138100
     14 CAQ          6.7080     0.1140    -6.2660 c3         1 KB1       0.163800
     15 NBG          6.6410     1.5130    -6.7050 n3         1 KB1      -0.710600
     16 CAO          6.1810     1.6070    -8.0970 c3         1 KB1       0.136800
     17 CB           4.6740     1.3450    -8.1560 c3         1 KB1      -0.087400
     18 CA           4.1730     1.5660    -9.5850 c3         1 KB1      -0.019500
     19 N            4.3360     2.9810    -9.9460 nz         1 KB1      -0.792600
     20 C            2.7160     1.1890    -9.6700 c          1 KB1       0.870600
     21 OXT          1.8670     2.0490    -9.6370 o          1 KB1      -0.774800
     22 O            2.3620    -0.1000    -9.7800 o          1 KB1      -0.774800
     23 CAP          7.9360     2.1840    -6.5330 c3         1 KB1       0.205100
     24 CAY          7.7690     3.6650    -6.7570 ca         1 KB1      -0.080300
     25 CAK          7.9200     4.1920    -8.0260 ca         1 KB1      -0.099500
     26 CAI          7.7680     5.5500    -8.2330 ca         1 KB1      -0.180500
     27 CAW          7.4640     6.3820    -7.1680 ca         1 KB1       0.135900
     28 FAG          7.3140     7.7100    -7.3690 f          1 KB1      -0.136900
     29 CAJ          7.3130     5.8520    -5.8980 ca         1 KB1      -0.180500
     30 CAL          7.4600     4.4930    -5.6940 ca         1 KB1      -0.099500
     31 CBC          6.7830    -1.4070    -4.2530 c3         1 KB1       0.087100
     32 OAE          8.1250    -1.7420    -3.8960 oh         1 KB1      -0.574800
     33 CBD          5.8670    -1.4430    -3.0090 c3         1 KB1       0.085100
     34 OAF          6.6170    -1.8000    -1.8460 oh         1 KB1      -0.562800
     35 H1          -0.5000    -0.8670    -0.0190 hn         1 KB1       0.445300
     36 H2          -0.5000     0.8670     0.0200 hn         1 KB1       0.445300
     37 H3           3.8460     0.0080     2.1310 h5         1 KB1       0.063100
     38 H4           2.8620     0.0100    -4.3300 h5         1 KB1       0.095800
     39 H5           5.9590     0.5730    -2.2060 h2         1 KB1       0.109700
     40 H6           7.5200     0.6350    -4.3290 h1         1 KB1       0.076700
     41 H7           5.8530    -0.4280    -6.6520 h1         1 KB1       0.053700
     42 H8           7.6200    -0.3380    -6.6390 h1         1 KB1       0.053700
     43 H10          6.3900     2.5980    -8.4810 h1         1 KB1       0.026700
     44 H11          6.6990     0.8700    -8.6990 h1         1 KB1       0.026700
     45 H12          4.4730     0.3240    -7.8570 hc         1 KB1       0.094200
     46 H13          4.1630     2.0250    -7.4850 hc         1 KB1       0.094200
     47 H14          4.7460     0.9500   -10.2680 hx         1 KB1       0.099700
     48 H15          5.2480     3.1240   -10.3300 hn         1 KB1       0.440467
     49 H16          3.6450     3.2330   -10.6250 hn         1 KB1       0.440467
     50 H19          8.6460     1.7880    -7.2490 h1         1 KB1       0.048200
     51 H20          8.3020     2.0100    -5.5280 h1         1 KB1       0.048200
     52 H21          8.2370     3.5530    -8.8420 ha         1 KB1       0.143000
     53 H22          7.9210     5.9680    -9.2200 ha         1 KB1       0.148500
     54 H23          7.0690     6.5010    -5.0660 ha         1 KB1       0.148500
     55 H24          7.5750     4.4070    -4.6210 ha         1 KB1       0.143000
     56 H25          6.4080    -2.0790    -5.0160 h1         1 KB1       0.051700
     57 H26          8.3380    -2.5950    -4.2370 ho         1 KB1       0.406000
     58 H27          5.0460    -2.1320    -3.1640 h1         1 KB1       0.060700
     59 H28          6.4800    -2.7130    -1.6510 ho         1 KB1       0.410000
     60 HN3          4.2240     3.5490    -9.1290 hn         1 KB1       0.440467
@<TRIPOS>BOND
     1    22    20 1
     2    21    20 1
     3    20    18 1
     4    18    19 1
     5    18    17 1
     6    17    16 1
     7    16    15 1
     8    32    31 1
     9    15    14 1
    10    15    23 1
    11    13    31 1
    12    13    12 1
    13    13    14 1
    14    31    33 1
    15     5     4 ar
    16     5     6 ar
    17     4     3 ar
    18    34    33 1
    19    11    12 1
    20    11    33 1
    21    11    10 1
    22    23    24 1
    23     6    10 1
    24     6     7 ar
    25     3     2 ar
    26    10     9 1
    27    25    24 ar
    28    25    26 ar
    29    24    30 ar
    30     7     2 ar
    31     7     8 1
    32     2     1 1
    33    26    27 ar
    34     9     8 2
    35    30    29 ar
    36    27    29 ar
    37    27    28 1
    38     1    35 1
    39     1    36 1
    40     4    37 1
    41     9    38 1
    42    11    39 1
    43    13    40 1
    44    14    41 1
    45    14    42 1
    46    16    43 1
    47    16    44 1
    48    17    45 1
    49    17    46 1
    50    18    47 1
    51    19    48 1
    52    19    49 1
    53    23    50 1
    54    23    51 1
    55    25    52 1
    56    26    53 1
    57    29    54 1
    58    30    55 1
    59    31    56 1
    60    32    57 1
    61    33    58 1
    62    34    59 1
    63    60    19 1
@<TRIPOS>SUBSTRUCTURE
     1 KB1         1 TEMP              0 ****  ****    0 ROOT
