@<TRIPOS>MOLECULE
KB2
   63    65     1     0     0
SMALL
bcc


@<TRIPOS>ATOM
      1 C1           0.0000     0.0000     0.0000 ca         1 KB2       0.408200
      2 N2           1.3110     0.0000     0.0000 nb         1 KB2      -0.569000
      3 C3           2.0050     0.0000     1.1420 ca         1 KB2       0.372600
      4 C4           1.3200     0.0020     2.3830 ca         1 KB2      -0.148300
      5 C5          -0.0860     0.0030     2.3870 ca         1 KB2      -0.054000
      6 C6          -0.7330     0.0020     1.1840 ca         1 KB2      -0.226300
      7 C7           2.0550     0.0020     3.5800 ca         1 KB2      -0.083000
      8 C8           3.4150     0.0000     3.5350 ca         1 KB2      -0.084300
      9 C9           4.0910    -0.0010     2.3160 ca         1 KB2      -0.074000
     10 C10          3.4110    -0.0010     1.1370 ca         1 KB2      -0.143300
     11 C11          4.2030     0.0010     4.8200 c3         1 KB2       0.180100
     12 N12          4.4570    -1.3840     5.2400 n7         1 KB2      -0.585200
     13 C13          5.2230    -1.4230     6.4920 c3         1 KB2       0.110900
     14 C14          5.4640    -2.8560     6.8900 cc         1 KB2       0.263600
     15 N15          5.0620    -3.4520     8.0170 nc         1 KB2      -0.308000
     16 N16          5.4540    -4.6770     8.0030 nd         1 KB2      -0.393800
     17 N17          6.0970    -4.9260     6.9170 na         1 KB2       0.589400
     18 C18          6.1250    -3.7950     6.1730 cd         1 KB2      -0.414600
     19 C19          6.6940    -6.2110     6.5460 c3         1 KB2      -0.153000
     20 C20          7.9710    -5.9720     5.7840 c          1 KB2       0.601100
     21 O21          8.1310    -4.9360     5.1840 o          1 KB2      -0.538100
     22 C22          9.0500    -7.0230     5.7700 c3         1 KB2      -0.088100
     23 C23          5.7160    -6.9930     5.6680 c3         1 KB2      -0.032400
     24 C24          6.2840    -8.3850     5.3850 c3         1 KB2      -0.044400
     25 C25          5.3060    -9.1670     4.5070 c3         1 KB2      -0.025400
     26 C26          5.8750   -10.5580     4.2230 c3         1 KB2       0.006900
     27 C27          4.4350    -0.7130     7.5950 c3         1 KB2      -0.083700
     28 C28          3.1490    -1.4910     7.8830 c3         1 KB2      -0.005600
     29 C29          5.2850    -0.6430     8.8650 c3         1 KB2      -0.005600
     30 C30          6.5660    -0.7170     6.2900 c3         1 KB2      -0.007100
     31 H1          -0.5270    -0.0010    -0.9460 h4         1 KB2      -0.023900
     32 H5          -0.6410     0.0040     3.3170 ha         1 KB2       0.110000
     33 H6          -1.8160     0.0020     1.1510 ha         1 KB2       0.111000
     34 H7           1.5420     0.0030     4.5340 ha         1 KB2       0.109000
     35 H9           5.1740    -0.0020     2.3060 ha         1 KB2       0.110000
     36 H10          3.9510    -0.0020     0.1980 ha         1 KB2       0.118000
     37 H11          3.6380     0.5130     5.5900 h1         1 KB2       0.021700
     38 H11A         5.1460     0.5100     4.6650 h1         1 KB2       0.021700
     39 HN12         3.5850    -1.8590     5.3670 hn         1 KB2       0.269800
     40 H18          6.5890    -3.6650     5.2020 h4         1 KB2       0.202000
     41 H19          6.9090    -6.7800     7.4420 h1         1 KB2       0.075700
     42 H22          9.1160    -7.4600     4.7810 hc         1 KB2       0.033700
     43 H22A         9.9990    -6.5700     6.0290 hc         1 KB2       0.033700
     44 H22B         8.8100    -7.7960     6.4900 hc         1 KB2       0.033700
     45 H23          4.7670    -7.0890     6.1820 hc         1 KB2       0.038200
     46 H23A         5.5680    -6.4660     4.7340 hc         1 KB2       0.038200
     47 H24          7.2330    -8.2890     4.8710 hc         1 KB2       0.022200
     48 H24A         6.4320    -8.9120     6.3200 hc         1 KB2       0.022200
     49 H25          4.3570    -9.2630     5.0210 hc         1 KB2       0.017200
     50 H25A         5.1590    -8.6400     3.5720 hc         1 KB2       0.017200
     51 H26          6.0390   -11.0790     5.1590 hc         1 KB2       0.002700
     52 H26A         6.8140   -10.4630     3.6930 hc         1 KB2       0.002700
     53 H26B         5.1730   -11.1190     3.6170 hc         1 KB2       0.002700
     54 H27          4.1850     0.2910     7.2720 hc         1 KB2       0.032700
     55 H28          3.2190    -1.9560     8.8590 hc         1 KB2       0.011200
     56 H28A         3.0130    -2.2560     7.1280 hc         1 KB2       0.011200
     57 H28B         2.3050    -0.8120     7.8660 hc         1 KB2       0.011200
     58 H29          4.6510    -0.7820     9.7320 hc         1 KB2       0.011200
     59 H29A         5.7690     0.3250     8.9230 hc         1 KB2       0.011200
     60 H29B         6.0380    -1.4220     8.8400 hc         1 KB2       0.011200
     61 H30          7.2940    -1.1200     6.9830 hc         1 KB2       0.015033
     62 H30A         6.9080    -0.8740     5.2750 hc         1 KB2       0.015033
     63 H30B         6.4460     0.3450     6.4700 hc         1 KB2       0.015033
@<TRIPOS>BOND
     1     1     2 ar  
     2     1     6 ar  
     3     1    31 1   
     4     2     3 ar  
     5     3     4 ar  
     6     3    10 ar  
     7     4     5 ar  
     8     4     7 ar  
     9     5     6 ar  
    10     5    32 1   
    11     6    33 1   
    12     7     8 ar  
    13     7    34 1   
    14     8     9 ar  
    15     8    11 1   
    16     9    10 ar  
    17     9    35 1   
    18    10    36 1   
    19    11    12 1   
    20    11    37 1   
    21    11    38 1   
    22    12    13 1   
    23    12    39 1   
    24    13    14 1   
    25    13    27 1   
    26    13    30 1   
    27    14    15 1   
    28    14    18 2   
    29    15    16 2   
    30    16    17 1   
    31    17    18 1   
    32    17    19 1   
    33    18    40 1   
    34    19    20 1   
    35    19    23 1   
    36    19    41 1   
    37    20    21 2   
    38    20    22 1   
    39    22    42 1   
    40    22    43 1   
    41    22    44 1   
    42    23    24 1   
    43    23    45 1   
    44    23    46 1   
    45    24    25 1   
    46    24    47 1   
    47    24    48 1   
    48    25    26 1   
    49    25    49 1   
    50    25    50 1   
    51    26    51 1   
    52    26    52 1   
    53    26    53 1   
    54    27    28 1   
    55    27    29 1   
    56    27    54 1   
    57    28    55 1   
    58    28    56 1   
    59    28    57 1   
    60    29    58 1   
    61    29    59 1   
    62    29    60 1   
    63    30    61 1   
    64    30    62 1   
    65    30    63 1   
@<TRIPOS>SUBSTRUCTURE
     1 KB2         1 TEMP              0 ****  ****    0 ROOT
