@<TRIPOS>MOLECULE
KB8
   37    39     1     0     0
SMALL
bcc


@<TRIPOS>ATOM
      1 FAB          0.0000     0.0000     0.0000 f          1 KB8      -0.204633
      2 CAU          1.4000     0.0000     0.0000 c3         1 KB8       0.538600
      3 FAC          1.8660     0.0000     1.3190 f          1 KB8      -0.204633
      4 FAD          1.8660    -1.1430    -0.6590 f          1 KB8      -0.204633
      5 CAP          1.9020     1.2290    -0.7100 ca         1 KB8       0.271600
      6 CAG          2.1280     2.3860     0.0220 ca         1 KB8      -0.219300
      7 NAM          2.1210     1.1740    -2.0040 nb         1 KB8      -0.493000
      8 CAR          2.5670     2.2340    -2.6870 ca         1 KB8       0.356600
      9 CAF          2.7950     2.1600    -4.0720 ca         1 KB8      -0.132300
     10 CAE          3.2510     3.2540    -4.7420 ca         1 KB8      -0.088000
     11 CAO          3.4950     4.4530    -4.0770 ca         1 KB8      -0.075300
     12 CAA          3.9980     5.6430    -4.8510 c3         1 KB8       0.060200
     13 CAH          3.2850     4.5620    -2.7350 ca         1 KB8      -0.084000
     14 CAS          2.8160     3.4540    -2.0150 ca         1 KB8      -0.107300
     15 CAQ          2.5910     3.5260    -0.6190 ca         1 KB8       0.061600
     16 NAT          2.8260     4.6970     0.0850 nh         1 KB8      -0.404000
     17 CAK          3.8370     4.4890     1.1310 c3         1 KB8       0.146800
     18 CAI          4.1250     5.8200     1.8300 c3         1 KB8       0.146300
     19 NAN          2.8790     6.3480     2.4040 n7         1 KB8      -0.584200
     20 CAJ          1.8680     6.5560     1.3580 c3         1 KB8       0.146300
     21 CAL          1.5810     5.2250     0.6580 c3         1 KB8       0.146800
     22 HAG          1.8460     2.4300     1.0670 ha         1 KB8       0.137000
     23 HAF          2.6100     1.2340    -4.6040 ha         1 KB8       0.122000
     24 HAE          3.4260     3.1910    -5.8090 ha         1 KB8       0.110000
     25 HAA1         4.8360     6.0870    -4.3270 hc         1 KB8       0.011033
     26 HAA2         3.2040     6.3740    -4.9460 hc         1 KB8       0.011033
     27 HAA3         4.3160     5.3250    -5.8360 hc         1 KB8       0.011033
     28 HAH          3.4780     5.4990    -2.2270 ha         1 KB8       0.130000
     29 HAK1         4.7490     4.1140     0.6810 h1         1 KB8       0.021950
     30 HAK2         3.4650     3.7750     1.8550 h1         1 KB8       0.021950
     31 HAL1         1.1870     4.5180     1.3780 h1         1 KB8       0.021950
     32 HAL2         0.8580     5.3830    -0.1330 h1         1 KB8       0.021950
     33 HAI1         4.8470     5.6620     2.6220 h1         1 KB8       0.012950
     34 HAI2         4.5180     6.5270     1.1100 h1         1 KB8       0.012950
     35 HAN          3.0660     7.2170     2.8640 hn         1 KB8       0.255800
     36 HAJ1         0.9570     6.9310     1.8070 h1         1 KB8       0.012950
     37 HAJ2         2.2400     7.2700     0.6330 h1         1 KB8       0.012950
@<TRIPOS>BOND
     1     1     2 1   
     2     2     3 1   
     3     2     4 1   
     4     2     5 1   
     5     5     6 ar  
     6     5     7 ar  
     7     6    15 ar  
     8     6    22 1   
     9     7     8 ar  
    10     8     9 ar  
    11     8    14 ar  
    12     9    10 ar  
    13     9    23 1   
    14    10    11 ar  
    15    10    24 1   
    16    11    12 1   
    17    11    13 ar  
    18    12    25 1   
    19    12    26 1   
    20    12    27 1   
    21    13    14 ar  
    22    13    28 1   
    23    14    15 ar  
    24    15    16 1   
    25    16    17 1   
    26    16    21 1   
    27    17    18 1   
    28    17    29 1   
    29    17    30 1   
    30    18    19 1   
    31    18    33 1   
    32    18    34 1   
    33    19    20 1   
    34    19    35 1   
    35    20    21 1   
    36    20    36 1   
    37    20    37 1   
    38    21    31 1   
    39    21    32 1   
@<TRIPOS>SUBSTRUCTURE
     1 KB8         1 TEMP              0 ****  ****    0 ROOT
