@<TRIPOS>MOLECULE
molecule
   35    36     1     0     0
SMALL
bcc


@<TRIPOS>ATOM
      1 C04          0.0000     0.0000     0.0000 c3         1 KBA       0.120400
      2 C05          1.5300     0.0000     0.0000 c3         1 KBA       0.057300
      3 C06          2.8750     0.0000     2.1190 cc         1 KBA      -0.294600
      4 C07          3.0540     0.8850     3.1280 cd         1 KBA       0.272200
      5 C1          -1.9000    -0.6190    -1.3230 c3         1 KBA       0.326900
      6 C2          -2.2960    -1.1320    -2.7110 c3         1 KBA       0.133100
      7 C3          -1.7680    -2.5590    -2.8880 c3         1 KBA       0.125100
      8 C4          -2.3220    -3.4400    -1.7640 c3         1 KBA       0.104100
      9 C5          -1.9250    -2.8390    -0.4130 c3         1 KBA       0.141100
     10 C6          -2.5250    -3.6800     0.7150 c3         1 KBA      -0.085100
     11 N01          2.0180     0.5850     1.2510 na         1 KBA       0.125400
     12 N02          2.3060     1.9540     2.8320 nd         1 KBA      -0.361000
     13 N03          1.7050     1.7450     1.7130 nc         1 KBA      -0.205800
     14 O03         -0.4760    -0.5710    -1.2210 os         1 KBA      -0.443600
     15 O2          -1.7280    -0.2850    -3.7120 oh         1 KBA      -0.591800
     16 O3          -2.1950    -3.0720    -4.1520 oh         1 KBA      -0.596800
     17 O4          -3.7460    -3.5000    -1.8620 oh         1 KBA      -0.584800
     18 O5          -2.4210    -1.5010    -0.3250 os         1 KBA      -0.421600
     19 H1          -0.3610     1.0180     0.0870 h1         1 KBA       0.053200
     20 H2          -0.3610    -0.5850     0.8380 h1         1 KBA       0.053200
     21 H3           1.8920     0.5850    -0.8370 h1         1 KBA       0.077700
     22 H4           1.8920    -1.0180    -0.0880 h1         1 KBA       0.077700
     23 H5           3.3280    -0.9800     2.0260 h4         1 KBA       0.180000
     24 H6           3.6790     0.7540     4.0030 h4         1 KBA       0.052100
     25 H7          -2.3110     0.3720    -1.1760 h2         1 KBA       0.084700
     26 H8          -3.3750    -1.1330    -2.8000 h1         1 KBA       0.083700
     27 H9          -0.6860    -2.5520    -2.8410 h1         1 KBA       0.060700
     28 H10         -1.9060    -4.4370    -1.8500 h1         1 KBA       0.041700
     29 H11         -0.8460    -2.8280    -0.3280 h1         1 KBA       0.047700
     30 H12         -2.1370    -3.3380     1.6660 hc         1 KBA       0.049367
     31 H13         -3.6040    -3.5790     0.7070 hc         1 KBA       0.049367
     32 H14         -2.2590    -4.7200     0.5700 hc         1 KBA       0.049367
     33 H15         -2.4150     0.1900    -4.1490 ho         1 KBA       0.408000
     34 H16         -1.4500    -3.4110    -4.6220 ho         1 KBA       0.405000
     35 H17         -4.0050    -4.3550    -2.1630 ho         1 KBA       0.406000
@<TRIPOS>BOND
     1    15     6 1
     2    16     7 1
     3     6     7 1
     4     6     5 1
     5    17     8 1
     6     7     8 1
     7     5    18 1
     8     5    14 1
     9     8     9 1
    10    18     9 1
    11    14     1 1
    12     9    10 1
    13     1     2 1
    14     2    11 1
    15     3    11 1
    16     3     4 2
    17    11    13 1
    18     4    12 1
    19    13    12 2
    20     1    19 1
    21     1    20 1
    22     2    21 1
    23     2    22 1
    24     3    23 1
    25     4    24 1
    26     5    25 1
    27     6    26 1
    28     7    27 1
    29     8    28 1
    30     9    29 1
    31    10    30 1
    32    10    31 1
    33    10    32 1
    34    15    33 1
    35    16    34 1
    36    17    35 1
@<TRIPOS>SUBSTRUCTURE
     1 KBA         1 TEMP              0 ****  ****    0 ROOT
