@<TRIPOS>MOLECULE
molecule
   37    39     1     0     0
SMALL
bcc


@<TRIPOS>ATOM
      1 C3           0.0000     0.0000     0.0000 ca         1 KBF       0.013000
      2 C4           1.4060     0.0000     0.0000 ca         1 KBF      -0.130000
      3 C5           2.0810     0.0000     1.1820 ca         1 KBF      -0.108000
      4 C6           1.4000    -0.0010     2.3980 ca         1 KBF      -0.137000
      5 C7           0.0410    -0.0010     2.4390 ca         1 KBF      -0.102000
      6 C8          -0.6930    -0.0010     1.2390 ca         1 KBF      -0.071000
      7 C9          -2.0950    -0.0010     1.2470 ca         1 KBF      -0.061000
      8 C10         -2.7850    -0.0020     0.0460 ca         1 KBF      -0.156600
      9 C1          -2.0870    -0.0010    -1.1800 ca         1 KBF       0.182100
     10 O1          -2.7790    -0.0010    -2.3470 oh         1 KBF      -0.468100
     11 C2          -0.7220    -0.0060    -1.2030 ca         1 KBF      -0.220000
     12 C11         -4.2610    -0.0020     0.0480 c          1 KBF       0.667700
     13 N           -4.9320    -0.0030     1.2170 ns         1 KBF      -0.594900
     14 C12         -6.3980    -0.0040     1.2190 c3         1 KBF       0.142000
     15 O2          -4.8710    -0.0030    -1.0040 o          1 KBF      -0.587100
     16 C15         -8.5150    -0.6350     4.5490 c3         1 KBF      -0.120400
     17 C14         -8.2970    -0.0070     3.1500 c3         1 KBF      -0.113400
     18 C13         -6.7530    -0.0420     3.0150 c3         1 KBF       0.103100
     19 O3          -6.3880    -1.2870     3.6500 os         1 KBF      -0.411600
     20 C16         -7.2190    -1.4250     4.8140 c3         1 KBF       0.126400
     21 H2           1.9500     0.0010    -0.9370 ha         1 KBF       0.135000
     22 H3           3.1650     0.0000     1.1770 ha         1 KBF       0.130000
     23 H4           1.9620    -0.0010     3.3250 ha         1 KBF       0.130000
     24 H5          -0.4750    -0.0020     3.3920 ha         1 KBF       0.132000
     25 H6          -2.6350    -0.0010     2.1860 ha         1 KBF       0.136000
     26 H22         -2.3350     0.5460    -2.9750 ho         1 KBF       0.418000
     27 H1          -0.1970    -0.0060    -2.1510 ha         1 KBF       0.141000
     28 H21         -4.4310     0.0140     2.0830 hn         1 KBF       0.321500
     29 H8          -6.7590    -0.8880     0.7090 h1         1 KBF       0.064700
     30 H7          -6.7600     0.8810     0.7100 h1         1 KBF       0.064700
     31 H13         -8.6450     0.1400     5.2950 hc         1 KBF       0.053200
     32 H10         -8.6610     1.0130     3.1260 hc         1 KBF       0.059200
     33 H11         -8.7630    -0.6100     2.3810 hc         1 KBF       0.059200
     34 H9          -6.3080     0.7950     3.5400 h1         1 KBF       0.054700
     35 H15         -7.4530    -2.4700     4.9770 h1         1 KBF       0.047700
     36 H14         -6.7100    -1.0160     5.6790 h1         1 KBF       0.047700
     37 H12         -9.3680    -1.3020     4.5340 hc         1 KBF       0.053200
@<TRIPOS>BOND
     1     2     3 ar
     2     2     1 ar
     3    16    20 1
     4    16    17 1
     5     3     4 ar
     6    11     1 ar
     7    11     9 ar
     8     1     6 ar
     9    10     9 1
    10    20    19 1
    11     9     8 ar
    12    17    18 1
    13     4     5 ar
    14     6     5 ar
    15     6     7 ar
    16     8     7 ar
    17     8    12 1
    18    19    18 1
    19    18    14 1
    20    13    12 1
    21    13    14 1
    22    12    15 2
    23     2    21 1
    24     3    22 1
    25     4    23 1
    26     5    24 1
    27     7    25 1
    28    10    26 1
    29    11    27 1
    30    13    28 1
    31    14    29 1
    32    14    30 1
    33    16    37 1
    34    16    31 1
    35    17    32 1
    36    17    33 1
    37    18    34 1
    38    20    35 1
    39    20    36 1
@<TRIPOS>SUBSTRUCTURE
     1 KBF         1 TEMP              0 ****  ****    0 ROOT
