@<TRIPOS>MOLECULE
KBF
   37    39     1     0     0
SMALL
bcc


@<TRIPOS>ATOM
      1 C3           0.0000     0.0000     0.0000 ca         1 KBF       0.020000
      2 C4           1.4060     0.0000     0.0000 ca         1 KBF      -0.106000
      3 C5           2.0810     0.0000     1.1820 ca         1 KBF      -0.081000
      4 C6           1.4000    -0.0010     2.3980 ca         1 KBF      -0.114000
      5 C7           0.0410    -0.0010     2.4390 ca         1 KBF      -0.073000
      6 C8          -0.6930    -0.0010     1.2390 ca         1 KBF      -0.075000
      7 C9          -2.0950    -0.0010     1.2470 ca         1 KBF      -0.037000
      8 C10         -2.7850    -0.0020     0.0460 ca         1 KBF      -0.172600
      9 C1          -2.0870    -0.0010    -1.1800 ca         1 KBF       0.205100
     10 O1          -2.7790    -0.0010    -2.3470 oh         1 KBF      -0.443100
     11 C2          -0.7220    -0.0060    -1.2030 ca         1 KBF      -0.210000
     12 C11         -4.2610    -0.0020     0.0480 c          1 KBF       0.593700
     13 N           -4.9320    -0.0030     1.2170 ns         1 KBF      -0.222900
     14 C12         -6.3980    -0.0040     1.2190 c3         1 KBF       0.089000
     15 O2          -4.8710    -0.0030    -1.0040 o          1 KBF      -0.630100
     16 C15         -8.5150    -0.6350     4.5490 c3         1 KBF      -0.063400
     17 C14         -8.2970    -0.0070     3.1500 c3         1 KBF      -0.059400
     18 C13         -6.7530    -0.0420     3.0150 c3         1 KBF       0.156100
     19 O3          -6.3880    -1.2870     3.6500 os         1 KBF      -0.404600
     20 C16         -7.2190    -1.4250     4.8140 c3         1 KBF       0.213400
     21 H2           1.9500     0.0010    -0.9370 ha         1 KBF       0.108000
     22 H3           3.1650     0.0000     1.1770 ha         1 KBF       0.101000
     23 H4           1.9620    -0.0010     3.3250 ha         1 KBF       0.103000
     24 H5          -0.4750    -0.0020     3.3920 ha         1 KBF       0.104000
     25 H6          -2.6350    -0.0010     2.1860 ha         1 KBF       0.108000
     26 H22         -2.3350     0.5460    -2.9750 ho         1 KBF       0.395000
     27 H1          -0.1970    -0.0060    -2.1510 ha         1 KBF       0.119000
     28 H21         -4.4310     0.0140     2.0830 hn         1 KBF       0.189500
     29 H8          -6.7590    -0.8880     0.7090 h1         1 KBF       0.027700
     30 H7          -6.7600     0.8810     0.7100 h1         1 KBF       0.027700
     31 H13         -8.6450     0.1400     5.2950 hc         1 KBF       0.022200
     32 H10         -8.6610     1.0130     3.1260 hc         1 KBF       0.029200
     33 H11         -8.7630    -0.6100     2.3810 hc         1 KBF       0.029200
     34 H9          -6.3080     0.7950     3.5400 h1         1 KBF       0.017700
     35 H15         -7.4530    -2.4700     4.9770 h1         1 KBF       0.006700
     36 H14         -6.7100    -1.0160     5.6790 h1         1 KBF       0.006700
     37 H12         -9.3680    -1.3020     4.5340 hc         1 KBF       0.022200
@<TRIPOS>BOND
     1     1     2 ar  
     2     1     6 ar  
     3     1    11 ar  
     4     2     3 ar  
     5     2    21 1   
     6     3     4 ar  
     7     3    22 1   
     8     4     5 ar  
     9     4    23 1   
    10     5     6 ar  
    11     5    24 1   
    12     6     7 ar  
    13     7     8 ar  
    14     7    25 1   
    15     8     9 ar  
    16     8    12 1   
    17     9    10 1   
    18     9    11 ar  
    19    10    26 1   
    20    11    27 1   
    21    12    13 1   
    22    12    15 2   
    23    13    14 1   
    24    13    28 1   
    25    14    18 1   
    26    14    29 1   
    27    14    30 1   
    28    16    17 1   
    29    16    20 1   
    30    16    31 1   
    31    16    37 1   
    32    17    18 1   
    33    17    32 1   
    34    17    33 1   
    35    18    19 1   
    36    18    34 1   
    37    19    20 1   
    38    20    35 1   
    39    20    36 1   
@<TRIPOS>SUBSTRUCTURE
     1 KBF         1 TEMP              0 ****  ****    0 ROOT
