@<TRIPOS>MOLECULE
molecule
   55    59     1     0     0
SMALL
bcc


@<TRIPOS>ATOM
      1 C1           0.0000     0.0000     0.0000 ca         1 KBI       0.951900
      2 F1           1.8240    -2.4040     6.4880 f          1 KBI      -0.117900
      3 N1           1.3260     0.0000     0.0000 nb         1 KBI      -0.793000
      4 O1           1.1240    -0.8120    -6.4890 oh         1 KBI      -0.604800
      5 C2          -0.0940    -0.0060     2.2980 ca         1 KBI       0.487800
      6 F2           5.3760    -0.0460     8.5530 f          1 KBI      -0.124900
      7 N2          -0.7040    -0.0010     1.1210 nb         1 KBI      -0.820000
      8 O2          -2.5000     0.7410     6.2730 os         1 KBI      -0.417600
      9 C3           1.3150    -0.0000     2.3380 ca         1 KBI      -0.172200
     10 F3           1.8340     2.3440     6.5070 f          1 KBI      -0.117900
     11 N3          -0.5140    -0.0080     3.6070 na         1 KBI      -0.275000
     12 C4           2.0130     0.0000     1.1320 ca         1 KBI       0.540200
     13 N4           1.6780    -0.0090     3.6470 nc         1 KBI      -0.631100
     14 C5           0.6040    -0.0160     4.3970 cd         1 KBI       0.665700
     15 N5           0.6000    -0.0240     5.7770 nu         1 KBI      -0.747600
     16 C6           1.8120    -0.0300     6.4820 ca         1 KBI       0.066600
     17 N6          -0.6710     0.0060    -1.2130 nu         1 KBI      -0.900900
     18 C7           0.0860     0.0070    -2.4690 c3         1 KBI       0.252500
     19 C8          -0.7690     0.6240    -3.5780 c3         1 KBI      -0.094900
     20 C9           0.0210     0.6240    -4.8880 c3         1 KBI      -0.087900
     21 C10          0.3870    -0.8140    -5.2650 c3         1 KBI       0.144100
     22 C11          1.2400    -1.4300    -4.1540 c3         1 KBI      -0.087900
     23 C12          0.4500    -1.4310    -2.8440 c3         1 KBI      -0.094900
     24 C13         -1.9030    -0.0030     4.0710 c3         1 KBI       0.023000
     25 C14         -2.1710     1.2260     4.9610 c3         1 KBI       0.099400
     26 C15         -3.0560    -0.5820     6.1070 c3         1 KBI       0.117400
     27 C16         -2.1670    -1.2110     5.0040 c3         1 KBI      -0.142400
     28 C17          2.4150     1.1700     6.8390 ca         1 KBI       0.197400
     29 C18          3.6110     1.1610     7.5350 ca         1 KBI      -0.226500
     30 C19          4.2070    -0.0410     7.8750 ca         1 KBI       0.193900
     31 C20          3.6090    -1.2380     7.5190 ca         1 KBI      -0.226500
     32 C21          2.4100    -1.2360     6.8290 ca         1 KBI       0.197400
     33 H4           3.0960    -0.0000     1.1200 h4         1 KBI       0.041100
     34 HN5         -0.2680    -0.0020     6.2750 hn         1 KBI       0.477800
     35 HN6         -1.6710     0.0450    -1.2320 hn         1 KBI       0.452800
     36 H7           0.9930     0.5870    -2.3490 h1         1 KBI       0.083700
     37 H8          -1.0240     1.6430    -3.3110 hc         1 KBI       0.049700
     38 H8A         -1.6730     0.0410    -3.7030 hc         1 KBI       0.049700
     39 H9          -0.5850     1.0580    -5.6730 hc         1 KBI       0.055200
     40 H9A          0.9270     1.2040    -4.7610 hc         1 KBI       0.055200
     41 H10         -0.5200    -1.3950    -5.3850 h1         1 KBI       0.028700
     42 H11          2.1440    -0.8460    -4.0290 hc         1 KBI       0.055200
     43 H11A         1.4960    -2.4480    -4.4210 hc         1 KBI       0.055200
     44 H12          1.0560    -1.8650    -2.0590 hc         1 KBI       0.049700
     45 H12A        -0.4560    -2.0100    -2.9710 hc         1 KBI       0.049700
     46 H13         -2.5900    -0.0180     3.2330 h1         1 KBI       0.103700
     47 H14         -3.0020     1.7950     4.5610 h1         1 KBI       0.068700
     48 H14A        -1.2830     1.8440     5.0100 h1         1 KBI       0.068700
     49 H15         -4.0860    -0.5220     5.7770 h1         1 KBI       0.060200
     50 H15A        -2.9750    -1.1460     7.0290 h1         1 KBI       0.060200
     51 H16         -2.7030    -1.9930     4.4790 hc         1 KBI       0.073700
     52 H16A        -1.2400    -1.5830     5.4230 hc         1 KBI       0.073700
     53 H18          4.0820     2.0960     7.8130 ha         1 KBI       0.167500
     54 H20          4.0810    -2.1780     7.7810 ha         1 KBI       0.167500
     55 HO1          0.6610    -1.3190    -7.1350 ho         1 KBI       0.400000
@<TRIPOS>BOND
     1     3     1 ar
     2     1     7 ar
     3     1    17 1
     4    32     2 1
     5    12     3 ar
     6    21     4 1
     7     4    55 1
     8     9     5 ar
     9    11     5 1
    10     5     7 ar
    11     6    30 1
    12    26     8 1
    13    25     8 1
    14    13     9 1
    15    12     9 ar
    16    10    28 1
    17    14    11 1
    18    11    24 1
    19    12    33 1
    20    13    14 2
    21    15    14 1
    22    16    15 1
    23    15    34 1
    24    28    16 ar
    25    16    32 ar
    26    17    18 1
    27    17    35 1
    28    23    18 1
    29    18    19 1
    30    18    36 1
    31    19    20 1
    32    19    37 1
    33    19    38 1
    34    21    20 1
    35    20    39 1
    36    20    40 1
    37    22    21 1
    38    21    41 1
    39    23    22 1
    40    22    42 1
    41    22    43 1
    42    23    44 1
    43    23    45 1
    44    27    24 1
    45    24    25 1
    46    24    46 1
    47    25    47 1
    48    25    48 1
    49    27    26 1
    50    26    49 1
    51    26    50 1
    52    27    51 1
    53    27    52 1
    54    29    28 ar
    55    29    30 ar
    56    29    53 1
    57    30    31 ar
    58    31    32 ar
    59    31    54 1
@<TRIPOS>SUBSTRUCTURE
     1 KBI         1 TEMP              0 ****  ****    0 ROOT
