@<TRIPOS>MOLECULE
KBK
   34    34     1     0     0
SMALL
bcc


@<TRIPOS>ATOM
      1 O9           0.0000     0.0000     0.0000 o          1 KBK      -0.723500
      2 P8           1.6100     0.0000     0.0000 p5         1 KBK       0.415700
      3 O11          2.1040    -1.2080    -0.6970 o          1 KBK      -0.723500
      4 O10          2.1460     1.3150    -0.7580 o          1 KBK      -0.723500
      5 C7           2.2180     0.0000     1.7200 c3         1 KBK       0.211200
      6 O12          3.5980     0.3680     1.7370 os         1 KBK      -0.372600
      7 C13          4.4790    -0.6550     1.2690 c3         1 KBK       0.135400
      8 C14          5.9070    -0.2090     1.4510 c          1 KBK       0.597100
      9 N16          6.9180    -1.0190     1.0770 n          1 KBK      -0.070300
     10 C17          8.3070    -0.5860     1.2540 c3         1 KBK       0.088300
     11 O18          6.6380    -2.2870     0.5130 oh         1 KBK      -0.428100
     12 O15          6.1470     0.8770     1.9330 o          1 KBK      -0.642100
     13 C3           1.4230     0.9880     2.5340 ca         1 KBK       0.025700
     14 C4           1.8420     2.3020     2.6240 ca         1 KBK      -0.068000
     15 C5           1.1150     3.2100     3.3700 ca         1 KBK      -0.184000
     16 C6          -0.0350     2.8030     4.0270 ca         1 KBK       0.040100
     17 O19         -0.7520     3.6940     4.7610 os         1 KBK      -0.330900
     18 C20         -1.9270     3.2030     5.4110 c3         1 KBK       0.244700
     19 C1          -0.4540     1.4830     3.9350 ca         1 KBK      -0.184000
     20 C2           0.2740     0.5800     3.1840 ca         1 KBK      -0.068000
     21 H3           2.1030    -0.9910     2.1430 h1         1 KBK      -0.009300
     22 H4           4.3090    -1.5640     1.8330 h1         1 KBK       0.037700
     23 H5           4.2900    -0.8420     0.2180 h1         1 KBK       0.037700
     24 H6           8.9730    -1.3220     0.8200 h1         1 KBK      -0.002300
     25 H7           8.4530     0.3680     0.7620 h1         1 KBK      -0.002300
     26 H8           8.5220    -0.4830     2.3110 h1         1 KBK      -0.002300
     27 H9           7.0760    -2.9560     1.0120 ho         1 KBK       0.365000
     28 H10          2.7410     2.6210     2.1110 ha         1 KBK       0.117500
     29 H11          1.4430     4.2400     3.4410 ha         1 KBK       0.081500
     30 H12         -2.6150     2.8170     4.6690 h1         1 KBK      -0.021300
     31 H13         -1.6550     2.4110     6.0980 h1         1 KBK      -0.021300
     32 H14         -2.4010     4.0100     5.9580 h1         1 KBK      -0.021300
     33 H15         -1.3540     1.1620     4.4460 ha         1 KBK       0.081500
     34 H16         -0.0530    -0.4500     3.1110 ha         1 KBK       0.117500
@<TRIPOS>BOND
     1     1     2 1   
     2     2     3 1   
     3     2     4 1   
     4     2     5 1   
     5     5     6 1   
     6     5    13 1   
     7     5    21 1   
     8     6     7 1   
     9     7     8 1   
    10     7    22 1   
    11     7    23 1   
    12     8     9 1   
    13     8    12 2   
    14     9    10 1   
    15     9    11 1   
    16    10    24 1   
    17    10    25 1   
    18    10    26 1   
    19    11    27 1   
    20    13    14 ar  
    21    13    20 ar  
    22    14    15 ar  
    23    14    28 1   
    24    15    16 ar  
    25    15    29 1   
    26    16    17 1   
    27    16    19 ar  
    28    17    18 1   
    29    18    30 1   
    30    18    31 1   
    31    18    32 1   
    32    19    20 ar  
    33    19    33 1   
    34    20    34 1   
@<TRIPOS>SUBSTRUCTURE
     1 KBK         1 TEMP              0 ****  ****    0 ROOT
