@<TRIPOS>MOLECULE
KBM
   31    33     1     0     0
SMALL
bcc


@<TRIPOS>ATOM
      1 CL1         0.0390    0.1670   -0.1200 cl        1 KBM     -0.086400
      2 C2          1.7370    0.1270   -0.0880 ca        1 KBM      0.043400
      3 C3          2.3960   -0.4290    1.0140 ca        1 KBM     -0.141000
      4 C4          3.7880   -0.4570    1.0360 ca        1 KBM     -0.066500
      5 C5          2.4630    0.6510   -1.1610 ca        1 KBM     -0.141000
      6 C6          3.8560    0.6110   -1.1350 ca        1 KBM     -0.066500
      7 C7          4.5260    0.0540   -0.0410 ca        1 KBM     -0.163600
      8 C8          6.0000    0.0150    0.0380 c         1 KBM      0.614900
      9 O9          6.5920    0.0790    1.1260 o         1 KBM     -0.520100
     10 C10         6.7850   -0.1090   -1.1940 cc        1 KBM     -0.062100
     11 O11         6.1160   -0.4570   -2.3900 os        1 KBM     -0.190200
     12 C12         7.1130   -0.5300   -3.3650 ca        1 KBM      0.043100
     13 C13         6.9360   -0.8480   -4.7060 ca        1 KBM     -0.094000
     14 C14         8.1420    0.0340   -1.3940 cd        1 KBM     -0.086200
     15 C15         8.3920   -0.2290   -2.7980 ca        1 KBM     -0.095800
     16 C16         9.5210   -0.2450   -3.6060 ca        1 KBM     -0.100000
     17 C17         9.3420   -0.5650   -4.9630 ca        1 KBM      0.103100
     18 C18         8.0760   -0.8610   -5.5060 ca        1 KBM     -0.169000
     19 O19        10.5120   -0.5580   -5.7020 os        1 KBM     -0.326900
     20 C20        10.3930   -0.8930   -7.0790 c3        1 KBM      0.112700
     21 H3          1.8220   -0.8380    1.8590 ha        1 KBM      0.152500
     22 H4          4.3200   -0.8770    1.9050 ha        1 KBM      0.155500
     23 H5          1.9420    1.0930   -2.0240 ha        1 KBM      0.152500
     24 H6          4.4270    1.0200   -1.9850 ha        1 KBM      0.155500
     25 H13         5.9430   -1.0790   -5.1140 ha        1 KBM      0.154000
     26 H14         8.8890    0.2920   -0.6440 ha        1 KBM      0.181000
     27 H16        10.5230   -0.0210   -3.2150 ha        1 KBM      0.161000
     28 H18         7.9720   -1.1080   -6.5720 ha        1 KBM      0.144000
     29 H20         9.7430   -0.1570   -7.6110 h1        1 KBM      0.045700
     30 H20A       11.4470   -0.8300   -7.4520 h1        1 KBM      0.045700
     31 H20B        9.9940   -1.9300   -7.2020 h1        1 KBM      0.045700
@<TRIPOS>BOND
     1    1    2 1   
     2    2    3 ar  
     3    2    5 ar  
     4    3    4 ar  
     5    3   21 1   
     6    4    7 ar  
     7    4   22 1   
     8    5    6 ar  
     9    5   23 1   
    10    6    7 ar  
    11    6   24 1   
    12    7    8 1   
    13    8    9 2   
    14    8   10 1   
    15   10   11 1   
    16   10   14 2   
    17   11   12 1   
    18   12   13 ar  
    19   12   15 ar  
    20   13   18 ar  
    21   13   25 1   
    22   14   15 1   
    23   14   26 1   
    24   15   16 ar  
    25   16   17 ar  
    26   16   27 1   
    27   17   18 ar  
    28   17   19 1   
    29   18   28 1   
    30   19   20 1   
    31   20   29 1   
    32   20   30 1   
    33   20   31 1   
@<TRIPOS>SUBSTRUCTURE
     1 KBM         1 TEMP              0 ****  ****    0 ROOT
