@<TRIPOS>MOLECULE
KBP
   46    45     1     0     0
SMALL
bcc


@<TRIPOS>ATOM
      1 CAA          0.0000     0.0000     0.0000 c          1 KBP       0.643700
      2 CAB          1.5060     0.0000     0.0000 c3         1 KBP      -0.118400
      3 CAC          2.0160     0.0000     1.4430 c3         1 KBP       0.199100
      4 CAD          3.5410    -0.1250     1.4450 c3         1 KBP      -0.050400
      5 CAE          4.0400    -0.2520     2.8860 c3         1 KBP      -0.028400
      6 CAF          5.5650    -0.3770     2.8870 c3         1 KBP      -0.028400
      7 CAG          6.0640    -0.5020     4.3290 c3         1 KBP      -0.029400
      8 CAH          7.5900    -0.6270     4.3320 c3         1 KBP      -0.030400
      9 CAI          8.0880    -0.7540     5.7720 c3         1 KBP      -0.028400
     10 CAJ          9.6140    -0.8790     5.7740 c3         1 KBP       0.006900
     11 OAM         -0.6070    -0.0010     1.0500 o          1 KBP      -0.570100
     12 OAN          1.6380     1.2210     2.0820 oh         1 KBP      -0.584800
     13 SAO         -0.8560     0.0080    -1.4830 ss         1 KBP      -0.308700
     14 CAP         -2.5570     0.0040    -0.8650 c3         1 KBP       0.062700
     15 CAQ         -3.5290     0.0100    -2.0460 c3         1 KBP       0.069000
     16 NAR         -4.9070     0.0080    -1.5450 ns         1 KBP      -0.209900
     17 CAS         -5.9380     0.0120    -2.4120 c          1 KBP       0.572100
     18 CAT         -7.3550     0.0080    -1.8970 c3         1 KBP      -0.066100
     19 OAY         -5.7270     0.0170    -3.6060 o          1 KBP      -0.642100
     20 HAB          1.8670    -0.8850    -0.5100 hc         1 KBP       0.053700
     21 HABA         1.8680     0.8840    -0.5110 hc         1 KBP       0.053700
     22 HAC          1.5850    -0.8370     1.9790 h1         1 KBP       0.012700
     23 HAD          3.8320    -1.0050     0.8830 hc         1 KBP       0.024200
     24 HADA         3.9760     0.7550     0.9880 hc         1 KBP       0.024200
     25 HAE          3.7490     0.6280     3.4480 hc         1 KBP       0.017700
     26 HAEA         3.6050    -1.1320     3.3430 hc         1 KBP       0.017700
     27 HAF          6.0000     0.5040     2.4300 hc         1 KBP       0.015200
     28 HAFA         5.8560    -1.2570     2.3260 hc         1 KBP       0.015200
     29 HAG          5.6290    -1.3830     4.7860 hc         1 KBP       0.014700
     30 HAGA         5.7730     0.3770     4.8900 hc         1 KBP       0.014700
     31 HAH          8.0250     0.2530     3.8750 hc         1 KBP       0.015200
     32 HAHA         7.8810    -1.5070     3.7700 hc         1 KBP       0.015200
     33 HAI          7.6530    -1.6350     6.2280 hc         1 KBP       0.012200
     34 HAIA         7.7970     0.1250     6.3330 hc         1 KBP       0.012200
     35 HAJ         10.0490     0.0010     5.3170 hc         1 KBP       0.000033
     36 HAJA         9.9050    -1.7590     5.2140 hc         1 KBP       0.000033
     37 HAJB         9.9670    -0.9680     6.7950 hc         1 KBP       0.000033
     38 HOAN         1.1550     1.0280     2.8680 ho         1 KBP       0.400000
     39 HAP         -2.7220     0.8850    -0.2570 h1         1 KBP       0.051200
     40 HAPA        -2.7210    -0.8840    -0.2660 h1         1 KBP       0.051200
     41 HAQ         -3.3640    -0.8720    -2.6530 h1         1 KBP       0.038700
     42 HAQA        -3.3640     0.8970    -2.6450 h1         1 KBP       0.038700
     43 HNAR        -5.0810    -0.0160    -0.5600 hn         1 KBP       0.176500
     44 HAT         -8.0430     0.0220    -2.7330 hc         1 KBP       0.022700
     45 HATA        -7.5170     0.8850    -1.2820 hc         1 KBP       0.022700
     46 HATB        -7.5220    -0.8840    -1.3060 hc         1 KBP       0.022700
@<TRIPOS>BOND
     1     1     2 1   
     2     1    11 2   
     3     1    13 1   
     4     2     3 1   
     5     2    20 1   
     6     2    21 1   
     7     3     4 1   
     8     3    12 1   
     9     3    22 1   
    10     4     5 1   
    11     4    23 1   
    12     4    24 1   
    13     5     6 1   
    14     5    25 1   
    15     5    26 1   
    16     6     7 1   
    17     6    27 1   
    18     6    28 1   
    19     7     8 1   
    20     7    29 1   
    21     7    30 1   
    22     8     9 1   
    23     8    31 1   
    24     8    32 1   
    25     9    10 1   
    26     9    33 1   
    27     9    34 1   
    28    10    35 1   
    29    10    36 1   
    30    10    37 1   
    31    12    38 1   
    32    13    14 1   
    33    14    15 1   
    34    14    39 1   
    35    14    40 1   
    36    15    16 1   
    37    15    41 1   
    38    15    42 1   
    39    16    17 1   
    40    16    43 1   
    41    17    18 1   
    42    17    19 2   
    43    18    44 1   
    44    18    45 1   
    45    18    46 1   
@<TRIPOS>SUBSTRUCTURE
     1 KBP         1 TEMP              0 ****  ****    0 ROOT
