@<TRIPOS>MOLECULE
molecule
   39    39     1     0     0
SMALL
bcc


@<TRIPOS>ATOM
      1 C4           0.0000     0.0000     0.0000 c3         1 KBR      -0.100400
      2 C5           1.5320     0.0000     0.0000 c3         1 KBR       0.139700
      3 C6           2.8770     0.9330     1.8210 c          1 KBR       0.753100
      4 C11          2.0440     1.2520    -0.7160 c3         1 KBR      -0.079400
      5 C7           4.3170     1.9000     3.4600 c3         1 KBR       0.164100
      6 C8           4.2140     2.1320     4.9690 c3         1 KBR      -0.084400
      7 C9           2.8280     2.6830     5.3070 c3         1 KBR      -0.093100
      8 C10          5.7410     1.4690     3.1060 c3         1 KBR      -0.115100
      9 C12          1.5640     1.2420    -2.1680 c3         1 KBR       0.130400
     10 N1           2.0050     0.0000     1.3910 n          1 KBR      -0.476800
     11 C3          -0.5070    -1.1780     0.8350 c3         1 KBR      -0.082400
     12 O2           3.3830     0.8610     3.0660 os         1 KBR      -0.439900
     13 O1           3.2060     1.8420     1.0840 o          1 KBR      -0.614000
     14 C1           1.5090    -1.0380     2.3060 c3         1 KBR       0.107000
     15 C2          -0.0240    -1.0270     2.2800 c3         1 KBR      -0.100400
     16 O3           2.1410     2.3450    -2.8680 oh         1 KBR      -0.602800
     17 H1          -0.3600     0.9270     0.4290 hc         1 KBR       0.053700
     18 H2          -0.3600    -0.0980    -1.0170 hc         1 KBR       0.053700
     19 H3           1.8940    -0.8870    -0.5050 h1         1 KBR       0.048700
     20 H4           1.6650     2.1350    -0.2160 hc         1 KBR       0.089200
     21 H5           3.1270     1.2630    -0.6940 hc         1 KBR       0.089200
     22 H6           4.0770     2.8180     2.9370 h1         1 KBR       0.075700
     23 H8           4.9700     2.8430     5.2780 hc         1 KBR       0.053200
     24 H9           2.5440     3.4240     4.5700 hc         1 KBR       0.037033
     25 H10          2.8500     3.1400     6.2890 hc         1 KBR       0.037033
     26 H11          2.1070     1.8740     5.3020 hc         1 KBR       0.037033
     27 H12          5.8630     1.4740     2.0290 hc         1 KBR       0.047033
     28 H13          5.9200     0.4690     3.4840 hc         1 KBR       0.047033
     29 H14          6.4490     2.1560     3.5530 hc         1 KBR       0.047033
     30 H15          0.4840     1.3240    -2.1910 h1         1 KBR       0.011700
     31 H16          1.8650     0.3150    -2.6420 h1         1 KBR       0.011700
     32 H17         -0.1230    -2.1030     0.4230 hc         1 KBR       0.043200
     33 H18         -1.5900    -1.1920     0.8180 hc         1 KBR       0.043200
     34 H19          1.8700    -2.0070     1.9840 h1         1 KBR       0.056700
     35 H20          1.8560    -0.8300     3.3110 h1         1 KBR       0.056700
     36 H21         -0.3840    -0.0890     2.6840 hc         1 KBR       0.050700
     37 H22         -0.4000    -1.8510     2.8740 hc         1 KBR       0.050700
     38 H23          1.8920     2.3060    -3.7770 ho         1 KBR       0.397000
     39 H7           4.3670     1.1940     5.4900 hc         1 KBR       0.053200
@<TRIPOS>BOND
     1     7     6 1
     2     6     5 1
     3     5     8 1
     4     5    12 1
     5    12     3 1
     6     3    13 2
     7     3    10 1
     8    14    10 1
     9    14    15 1
    10    10     2 1
    11    15    11 1
    12     2     1 1
    13     2     4 1
    14    11     1 1
    15     4     9 1
    16     9    16 1
    17     1    17 1
    18     1    18 1
    19     2    19 1
    20     4    20 1
    21     4    21 1
    22     5    22 1
    23     6    39 1
    24     6    23 1
    25     7    24 1
    26     7    25 1
    27     7    26 1
    28     8    27 1
    29     8    28 1
    30     8    29 1
    31     9    30 1
    32     9    31 1
    33    11    32 1
    34    11    33 1
    35    14    34 1
    36    14    35 1
    37    15    36 1
    38    15    37 1
    39    16    38 1
@<TRIPOS>SUBSTRUCTURE
     1 KBR         1 TEMP              0 ****  ****    0 ROOT
