@<TRIPOS>MOLECULE
KBR
   39    39     1     0     0
SMALL
bcc


@<TRIPOS>ATOM
      1 C4           0.0000     0.0000     0.0000 c3         1 KBR      -0.055400
      2 C5           1.5320     0.0000     0.0000 c3         1 KBR       0.057700
      3 C6           2.8770     0.9330     1.8210 c          1 KBR       0.697100
      4 C11          2.0440     1.2520    -0.7160 c3         1 KBR      -0.071400
      5 C7           4.3170     1.9000     3.4600 c3         1 KBR       0.194100
      6 C8           4.2140     2.1320     4.9690 c3         1 KBR      -0.037400
      7 C9           2.8280     2.6830     5.3070 c3         1 KBR       0.004900
      8 C10          5.7410     1.4690     3.1060 c3         1 KBR      -0.026100
      9 C12          1.5640     1.2420    -2.1680 c3         1 KBR       0.218400
     10 N1           2.0050     0.0000     1.3910 n          1 KBR      -0.132800
     11 C3          -0.5070    -1.1780     0.8350 c3         1 KBR      -0.025400
     12 O2           3.3830     0.8610     3.0660 os         1 KBR      -0.420900
     13 O1           3.2060     1.8420     1.0840 o          1 KBR      -0.658000
     14 C1           1.5090    -1.0380     2.3060 c3         1 KBR       0.049000
     15 C2          -0.0240    -1.0270     2.2800 c3         1 KBR      -0.042400
     16 O3           2.1410     2.3450    -2.8680 oh         1 KBR      -0.583800
     17 H1          -0.3600     0.9270     0.4290 hc         1 KBR       0.028700
     18 H2          -0.3600    -0.0980    -1.0170 hc         1 KBR       0.028700
     19 H3           1.8940    -0.8870    -0.5050 h1         1 KBR       0.023700
     20 H4           1.6650     2.1350    -0.2160 hc         1 KBR       0.068200
     21 H5           3.1270     1.2630    -0.6940 hc         1 KBR       0.068200
     22 H6           4.0770     2.8180     2.9370 h1         1 KBR       0.045700
     23 H8           4.9700     2.8430     5.2780 hc         1 KBR       0.022200
     24 H9           2.5440     3.4240     4.5700 hc         1 KBR       0.003367
     25 H10          2.8500     3.1400     6.2890 hc         1 KBR       0.003367
     26 H11          2.1070     1.8740     5.3020 hc         1 KBR       0.003367
     27 H12          5.8630     1.4740     2.0290 hc         1 KBR       0.013700
     28 H13          5.9200     0.4690     3.4840 hc         1 KBR       0.013700
     29 H14          6.4490     2.1560     3.5530 hc         1 KBR       0.013700
     30 H15          0.4840     1.3240    -2.1910 h1         1 KBR      -0.020800
     31 H16          1.8650     0.3150    -2.6420 h1         1 KBR      -0.020800
     32 H17         -0.1230    -2.1030     0.4230 hc         1 KBR       0.016200
     33 H18         -1.5900    -1.1920     0.8180 hc         1 KBR       0.016200
     34 H19          1.8700    -2.0070     1.9840 h1         1 KBR       0.028700
     35 H20          1.8560    -0.8300     3.3110 h1         1 KBR       0.028700
     36 H21         -0.3840    -0.0890     2.6840 hc         1 KBR       0.022200
     37 H22         -0.4000    -1.8510     2.8740 hc         1 KBR       0.022200
     38 H23          1.8920     2.3060    -3.7770 ho         1 KBR       0.383000
     39 H7           4.3670     1.1940     5.4900 hc         1 KBR       0.022200
@<TRIPOS>BOND
     1     1     2 1   
     2     1    11 1   
     3     1    17 1   
     4     1    18 1   
     5     2     4 1   
     6     2    10 1   
     7     2    19 1   
     8     3    10 1   
     9     3    12 1   
    10     3    13 2   
    11     4     9 1   
    12     4    20 1   
    13     4    21 1   
    14     5     6 1   
    15     5     8 1   
    16     5    12 1   
    17     5    22 1   
    18     6     7 1   
    19     6    23 1   
    20     6    39 1   
    21     7    24 1   
    22     7    25 1   
    23     7    26 1   
    24     8    27 1   
    25     8    28 1   
    26     8    29 1   
    27     9    16 1   
    28     9    30 1   
    29     9    31 1   
    30    10    14 1   
    31    11    15 1   
    32    11    32 1   
    33    11    33 1   
    34    14    15 1   
    35    14    34 1   
    36    14    35 1   
    37    15    36 1   
    38    15    37 1   
    39    16    38 1   
@<TRIPOS>SUBSTRUCTURE
     1 KBR         1 TEMP              0 ****  ****    0 ROOT
