@<TRIPOS>MOLECULE
KBT
   49    50     1     0     0
SMALL
bcc


@<TRIPOS>ATOM
      1 C1           0.0000     0.0000     0.0000 c3         1 KBT      -0.063400
      2 C2           1.5300     0.0000     0.0000 c3         1 KBT      -0.031400
      3 C3           2.0410     0.0000     1.4420 c3         1 KBT       0.015900
      4 C4          -0.5100    -0.0010    -1.4420 c3         1 KBT      -0.016000
      5 N5          -1.9750    -0.0000    -1.4410 n          1 KBT       0.094000
      6 C6          -2.6530     1.1890    -1.5970 cc         1 KBT      -0.164600
      7 C7          -1.9060     2.4590    -1.7650 c          1 KBT       0.661900
      8 O8          -1.2930     2.9310    -0.8280 o          1 KBT      -0.525100
      9 C9          -1.9070     3.1480    -3.0700 ca         1 KBT      -0.191600
     10 C10         -2.4820     2.5370    -4.1850 ca         1 KBT      -0.041000
     11 C11         -2.4780     3.1940    -5.4120 ca         1 KBT       0.026000
     12 C12         -3.0670     2.5740    -6.5610 cg         1 KBT       0.219800
     13 N13         -3.5490     2.0750    -7.4610 n1         1 KBT      -0.360800
     14 C14         -1.8970     4.4620    -5.5200 ca         1 KBT      -0.039000
     15 C15         -1.3290     5.0610    -4.4130 ca         1 KBT      -0.102300
     16 C16         -0.7060     6.4290    -4.5380 c3         1 KBT       0.064200
     17 C17         -1.3350     4.4190    -3.1920 ca         1 KBT      -0.017000
     18 C18         -4.0120     1.1880    -1.5970 cd         1 KBT      -0.218400
     19 C19         -4.7850     2.4710    -1.7660 c3         1 KBT       0.023500
     20 C20         -5.7480     2.3350    -2.9480 c3         1 KBT      -0.003600
     21 C21         -5.5820     2.7580    -0.4900 c3         1 KBT      -0.003600
     22 C22         -4.7090    -0.0920    -1.4280 c          1 KBT       0.620700
     23 O23         -5.9250    -0.1400    -1.4220 o          1 KBT      -0.645500
     24 N24         -3.9780    -1.2160    -1.2800 ns         1 KBT      -0.130500
     25 C25         -2.6350    -1.1620    -1.2940 c          1 KBT       0.561500
     26 O26         -1.9990    -2.1890    -1.1590 o          1 KBT      -0.685500
     27 H1          -0.3610     0.6730     0.7680 hc         1 KBT       0.044700
     28 H1A         -0.3610    -1.0020     0.1980 hc         1 KBT       0.044700
     29 H2           1.8920    -1.0020    -0.1980 hc         1 KBT       0.016700
     30 H2A          1.8920     0.6720    -0.7690 hc         1 KBT       0.016700
     31 H3           1.6490    -0.8650     1.9640 hc         1 KBT       0.001700
     32 H3A          1.7120     0.9030     1.9420 hc         1 KBT       0.001700
     33 H3B          3.1230    -0.0390     1.4420 hc         1 KBT       0.001700
     34 H4           0.3240    -0.1320    -2.1200 h1         1 KBT       0.047700
     35 H4A         -1.0010     0.9420    -1.6510 h1         1 KBT       0.047700
     36 H10         -2.9460     1.5620    -4.0880 ha         1 KBT       0.125000
     37 H14         -1.8920     4.9760    -6.4730 ha         1 KBT       0.120000
     38 H16          0.3660     6.3510    -4.4040 hc         1 KBT       0.013700
     39 H16A        -1.1180     7.0840    -3.7810 hc         1 KBT       0.013700
     40 H16B        -0.9180     6.8340    -5.5200 hc         1 KBT       0.013700
     41 H17         -0.9700     4.9350    -2.3130 ha         1 KBT       0.129000
     42 H19         -4.0960     3.3050    -1.8060 hc         1 KBT       0.027700
     43 H20         -6.6200     1.7710    -2.6400 hc         1 KBT       0.013533
     44 H20A        -5.2510     1.8170    -3.7590 hc         1 KBT       0.013533
     45 H20B        -6.0520     3.3190    -3.2800 hc         1 KBT       0.013533
     46 H21         -4.9740     2.5240     0.3750 hc         1 KBT       0.013533
     47 H21A        -6.4770     2.1480    -0.4790 hc         1 KBT       0.013533
     48 H21B        -5.8590     3.8050    -0.4650 hc         1 KBT       0.013533
     49 HN24        -4.4450    -2.0990    -1.2140 hn         1 KBT       0.207500
@<TRIPOS>BOND
     1     1     2 1   
     2     1     4 1   
     3     1    27 1   
     4     1    28 1   
     5     2     3 1   
     6     2    29 1   
     7     2    30 1   
     8     3    31 1   
     9     3    32 1   
    10     3    33 1   
    11     4     5 1   
    12     4    34 1   
    13     4    35 1   
    14     5     6 1   
    15     5    25 1   
    16     6     7 1   
    17     6    18 2   
    18     7     8 2   
    19     7     9 1   
    20     9    10 ar  
    21     9    17 ar  
    22    10    11 ar  
    23    10    36 1   
    24    11    12 1   
    25    11    14 ar  
    26    12    13 3   
    27    14    15 ar  
    28    14    37 1   
    29    15    16 1   
    30    15    17 ar  
    31    16    38 1   
    32    16    39 1   
    33    16    40 1   
    34    17    41 1   
    35    18    19 1   
    36    18    22 1   
    37    19    20 1   
    38    19    21 1   
    39    19    42 1   
    40    20    43 1   
    41    20    44 1   
    42    20    45 1   
    43    21    46 1   
    44    21    47 1   
    45    21    48 1   
    46    22    23 2   
    47    22    24 1   
    48    24    25 1   
    49    24    49 1   
    50    25    26 2   
@<TRIPOS>SUBSTRUCTURE
     1 KBT         1 TEMP              0 ****  ****    0 ROOT
