@<TRIPOS>MOLECULE
molecule
   35    36     1     0     0
SMALL
bcc


@<TRIPOS>ATOM
      1 O01          0.0000     0.0000     0.0000 o          1 KC6      -0.817800
      2 C02          1.2140     0.0000     0.0000 c          1 KC6       0.878200
      3 C03          1.9540     0.0000     1.2830 ca         1 KC6      -0.081600
      4 C04          3.3520     0.0000     1.3050 ca         1 KC6      -0.188300
      5 C05          4.0080    -0.0010     2.5220 ca         1 KC6       0.376200
      6 N06          3.3370    -0.0020     3.6540 nb         1 KC6      -0.720000
      7 C07          2.0110    -0.0030     3.6840 cp         1 KC6       0.286300
      8 C08          1.3060    -0.0040     4.9890 cp         1 KC6       0.427300
      9 C09          2.0420    -0.0050     6.1700 ca         1 KC6      -0.158300
     10 C10          1.3630    -0.0060     7.3900 ca         1 KC6      -0.138600
     11 C11          2.1040    -0.0060     8.6740 c          1 KC6       0.689700
     12 N12          1.4290    -0.0070     9.8410 ns         1 KC6      -0.601900
     13 C13          2.1620    -0.0070    11.1090 c3         1 KC6       0.099000
     14 C14          1.1670    -0.0090    12.2720 c3         1 KC6       0.069800
     15 N15          1.9020    -0.0090    13.5440 nz         1 KC6      -0.806600
     16 O16          3.3190    -0.0050     8.6740 o          1 KC6      -0.579100
     17 C17         -0.0360    -0.0060     7.3690 ca         1 KC6      -0.275300
     18 C18         -0.6920    -0.0050     6.1510 ca         1 KC6       0.431200
     19 N19         -0.0200     0.0010     5.0190 nb         1 KC6      -0.652000
     20 C20          1.2730     0.0040     2.5030 ca         1 KC6      -0.162300
     21 O21          1.8880    -0.0040    -1.1660 o          1 KC6      -0.817800
     22 H04          3.9150     0.0010     0.3790 ha         1 KC6       0.169000
     23 H05          5.0920    -0.0000     2.5440 h4         1 KC6       0.007100
     24 H09          3.1090    -0.1930     6.1440 ha         1 KC6       0.188000
     25 HN12         0.4290     0.0290     9.8410 hn         1 KC6       0.327500
     26 H13          2.7830     0.8790    11.1670 h1         1 KC6       0.068700
     27 H13A         2.7860    -0.8900    11.1660 h1         1 KC6       0.068700
     28 H14          0.5450    -0.8940    12.2140 hx         1 KC6       0.115200
     29 H14A         0.5430     0.8750    12.2150 hx         1 KC6       0.115200
     30 HN15         1.2510    -0.0100    14.3050 hn         1 KC6       0.459467
     31 HN1A         2.4780    -0.8250    13.5970 hn         1 KC6       0.459467
     32 H17         -0.5980    -0.0090     8.2950 ha         1 KC6       0.103000
     33 H18         -1.7750    -0.0030     6.1290 h4         1 KC6       0.026100
     34 H20          0.1910     0.0030     2.5290 ha         1 KC6       0.175000
     35 H153         2.4760     0.8090    13.5980 hn         1 KC6       0.459467
@<TRIPOS>BOND
     1     1     2 1
     2     2     3 1
     3     2    21 1
     4     3     4 ar
     5     3    20 ar
     6     4     5 ar
     7     5     6 ar
     8     6     7 ar
     9     7     8 1
    10     7    20 ar
    11     8     9 ar
    12     8    19 ar
    13     9    10 ar
    14    10    11 1
    15    10    17 ar
    16    11    12 1
    17    11    16 2
    18    12    13 1
    19    13    14 1
    20    14    15 1
    21    17    18 ar
    22    18    19 ar
    23     4    22 1
    24     5    23 1
    25     9    24 1
    26    12    25 1
    27    13    26 1
    28    13    27 1
    29    14    28 1
    30    14    29 1
    31    15    30 1
    32    15    31 1
    33    17    32 1
    34    18    33 1
    35    20    34 1
    36    35    15 1
@<TRIPOS>SUBSTRUCTURE
     1 KC6         1 TEMP              0 ****  ****    0 ROOT
