@<TRIPOS>MOLECULE
molecule
   51    54     1     0     0
SMALL
bcc


@<TRIPOS>ATOM
      1 O2           0.0000     0.0000     0.0000 oh         1 KC7      -0.554800
      2 C1           1.4300     0.0000     0.0000 c3         1 KC7       0.123100
      3 C2           1.9690     0.0000     1.4450 c3         1 KC7       0.118100
      4 O1           0.9820     0.5250     2.3360 oh         1 KC7      -0.574800
      5 C3           3.2150     0.9010     1.4490 c3         1 KC7      -0.091700
      6 C5           4.4450     0.0940     1.8700 c3         1 KC7       0.144400
      7 O            5.5720     0.9650     1.9820 oh         1 KC7      -0.606800
      8 C4           3.3910     1.4170     0.0060 c3         1 KC7      -0.083400
      9 C            1.9730     1.3160    -0.6080 c3         1 KC7       0.241500
     10 N            2.0440     1.2230    -2.0690 nu         1 KC7      -0.887900
     11 C6           0.9390     1.5310    -2.8340 ca         1 KC7       0.761200
     12 N2          -0.2260     1.8140    -2.2660 nb         1 KC7      -0.816000
     13 C13         -1.2930     2.1120    -2.9890 ca         1 KC7       0.738900
     14 N1          -1.2790     2.1470    -4.3010 nb         1 KC7      -0.792000
     15 C12         -0.1510     1.8760    -4.9770 ca         1 KC7       0.507600
     16 C7           1.0190     1.5590    -4.2450 ca         1 KC7      -0.349600
     17 C11         -0.1010     1.9050    -6.3750 ca         1 KC7      -0.223300
     18 C10          1.0670     1.6220    -7.0200 ca         1 KC7      -0.061000
     19 C9           2.2200     1.3030    -6.3110 ca         1 KC7      -0.260000
     20 C8           2.2120     1.2770    -4.9300 ca         1 KC7       0.182100
     21 O3           3.3410     0.9660    -4.2450 os         1 KC7      -0.346900
     22 C14          4.5130     0.6930    -5.0140 c3         1 KC7       0.189700
     23 C15          5.6580     0.3700    -4.0880 ca         1 KC7      -0.108300
     24 C20          5.8880    -0.9370    -3.7030 ca         1 KC7      -0.104500
     25 C19          6.9380    -1.2340    -2.8540 ca         1 KC7      -0.130500
     26 C18          7.7580    -0.2230    -2.3910 ca         1 KC7      -0.113000
     27 C17          7.5300     1.0850    -2.7780 ca         1 KC7      -0.130500
     28 C16          6.4820     1.3800    -3.6300 ca         1 KC7      -0.104500
     29 H2          -0.3140    -0.8880    -0.0400 ho         1 KC7       0.389000
     30 H1           1.8140    -0.8530    -0.5450 h1         1 KC7       0.039700
     31 HA           2.2410    -1.0070     1.7370 h1         1 KC7       0.027700
     32 H            1.3640     2.1580    -0.3000 h1         1 KC7       0.108700
     33 HB           0.8380    -0.0860     3.0400 ho         1 KC7       0.396000
     34 H3           3.0650     1.7350     2.1230 hc         1 KC7       0.089700
     35 H51C         4.6490    -0.6670     1.1260 h1         1 KC7       0.022700
     36 H52C         4.2570    -0.3780     2.8270 h1         1 KC7       0.022700
     37 H41C         3.7280     2.4470     0.0110 hc         1 KC7       0.060200
     38 H42C         4.0840     0.7870    -0.5390 hc         1 KC7       0.060200
     39 HC           6.1750     0.6180     2.6190 ho         1 KC7       0.402000
     40 HD           2.9020     0.9620    -2.5120 hn         1 KC7       0.474800
     41 H13         -2.2200     2.3360    -2.4750 h5         1 KC7       0.056100
     42 H11         -0.9890     2.1520    -6.9450 ha         1 KC7       0.152000
     43 H10          1.0950     1.6360    -8.1030 ha         1 KC7       0.132000
     44 H9           3.1350     1.0820    -6.8460 ha         1 KC7       0.133000
     45 H141         4.7650     1.5620    -5.6100 h1         1 KC7       0.048700
     46 H142         4.3280    -0.1520    -5.6670 h1         1 KC7       0.048700
     47 H20          5.2440    -1.7300    -4.0660 ha         1 KC7       0.135500
     48 H16          6.3030     2.4050    -3.9320 ha         1 KC7       0.135500
     49 H19          7.1170    -2.2590    -2.5520 ha         1 KC7       0.134500
     50 H18          8.5800    -0.4550    -1.7250 ha         1 KC7       0.133000
     51 H17          8.1740     1.8770    -2.4170 ha         1 KC7       0.134500
@<TRIPOS>BOND
     1     1     2 1
     2     2     3 1
     3     2     9 1
     4     3     4 1
     5     3     5 1
     6     5     6 1
     7     5     8 1
     8     6     7 1
     9     8     9 1
    10     9    10 1
    11    10    11 1
    12    11    12 ar
    13    11    16 ar
    14    12    13 ar
    15    13    14 ar
    16    14    15 ar
    17    15    16 ar
    18    15    17 ar
    19    16    20 ar
    20    17    18 ar
    21    18    19 ar
    22    19    20 ar
    23    20    21 1
    24    21    22 1
    25    22    23 1
    26    23    24 ar
    27    23    28 ar
    28    24    25 ar
    29    25    26 ar
    30    26    27 ar
    31    27    28 ar
    32     1    29 1
    33     2    30 1
    34     3    31 1
    35     9    32 1
    36     4    33 1
    37     5    34 1
    38     6    35 1
    39     6    36 1
    40     8    37 1
    41     8    38 1
    42     7    39 1
    43    10    40 1
    44    13    41 1
    45    17    42 1
    46    18    43 1
    47    19    44 1
    48    22    45 1
    49    22    46 1
    50    24    47 1
    51    28    48 1
    52    25    49 1
    53    26    50 1
    54    27    51 1
@<TRIPOS>SUBSTRUCTURE
     1 KC7         1 TEMP              0 ****  ****    0 ROOT
