@<TRIPOS>MOLECULE
molecule
   53    55     1     0     0
SMALL
bcc


@<TRIPOS>ATOM
      1 N            0.0000     0.0000     0.0000 ns         1 KCA      -0.562900
      2 CA           1.4650     0.0000     0.0000 c3         1 KCA       0.085700
      3 C            1.9680     0.0000     1.4200 c          1 KCA       0.629100
      4 O            1.1830    -0.0010     2.3380 o          1 KCA      -0.553000
      5 CB           1.9740     1.2500    -0.7210 c3         1 KCA      -0.080000
      6 CG1          3.5040     1.2500    -0.7210 c3         1 KCA      -0.083100
      7 CG2          1.4640     1.2510    -2.1630 c3         1 KCA      -0.083100
      8 CAB         -0.6750    -0.4970    -1.0560 c          1 KCA       0.636800
      9 CAG          3.7000    -0.0010     3.0570 c3         1 KCA       0.135700
     10 CAL          1.4640     2.4990     0.0020 c3         1 KCA      -0.083100
     11 CAM         -2.1490    -0.4980    -1.0550 cc         1 KCA       0.283900
     12 CAQ         -5.6600    -0.9240     1.3780 ca         1 KCA      -0.146300
     13 CAR         -6.6080    -1.8460     0.9770 ca         1 KCA      -0.076500
     14 CAS         -6.9500    -2.8940     1.8100 ca         1 KCA      -0.169500
     15 CAT         -6.3420    -3.0200     3.0480 ca         1 KCA       0.147900
     16 CAV         -5.3920    -2.0960     3.4490 ca         1 KCA      -0.169500
     17 CAW         -5.0480    -1.0530     2.6110 ca         1 KCA      -0.076500
     18 CAX         -4.3310    -0.7790    -1.6260 ca         1 KCA      -0.074200
     19 CAY         -3.0290    -1.0050    -2.1160 ca         1 KCA      -0.177900
     20 CAZ         -2.8430    -1.5950    -3.3620 ca         1 KCA      -0.052000
     21 CBA         -3.9310    -1.9530    -4.1090 ca         1 KCA      -0.156000
     22 CBB         -5.2170    -1.7330    -3.6350 ca         1 KCA      -0.096000
     23 CBC         -5.4230    -1.1520    -2.4030 ca         1 KCA      -0.142000
     24 FAU         -6.6760    -4.0430     3.8640 f          1 KCA      -0.136900
     25 NAN         -2.9360    -0.0490    -0.1010 nd         1 KCA      -0.495100
     26 NAO         -4.1780    -0.1900    -0.3990 na         1 KCA       0.140900
     27 OAA         -0.0670    -0.9470    -2.0080 o          1 KCA      -0.612100
     28 OAF          3.2880    -0.0000     1.6650 os         1 KCA      -0.420900
     29 H1          -0.5000     0.3410     0.7970 hn         1 KCA       0.346500
     30 H2           1.8260    -0.8840    -0.5110 h1         1 KCA       0.105700
     31 H3           3.8650     0.2300    -0.7740 hc         1 KCA       0.041700
     32 H4           3.8650     1.7140     0.1890 hc         1 KCA       0.041700
     33 H5           3.8650     1.8060    -1.5780 hc         1 KCA       0.041700
     34 H6           1.6960     0.3010    -2.6290 hc         1 KCA       0.041700
     35 H7           1.9440     2.0500    -2.7150 hc         1 KCA       0.041700
     36 H8           0.3920     1.4040    -2.1670 hc         1 KCA       0.041700
     37 H9           3.3070    -0.8820     3.5500 h1         1 KCA       0.050700
     38 H10          3.3190     0.8870     3.5480 h1         1 KCA       0.050700
     39 H11          4.7820    -0.0080     3.1140 h1         1 KCA       0.050700
     40 H12          0.4210     2.6570    -0.2420 hc         1 KCA       0.041700
     41 H13          2.0430     3.3590    -0.3130 hc         1 KCA       0.041700
     42 H14          1.5690     2.3650     1.0720 hc         1 KCA       0.041700
     43 H15         -4.9840     1.0710     1.0630 h1         1 KCA       0.075200
     44 H16         -6.1410     0.4880    -0.1420 h1         1 KCA       0.075200
     45 H17         -7.0840    -1.7470     0.0090 ha         1 KCA       0.142000
     46 H18         -7.6940    -3.6160     1.4960 ha         1 KCA       0.150000
     47 H19         -4.9140    -2.1950     4.4160 ha         1 KCA       0.150000
     48 H20         -4.3040    -0.3290     2.9240 ha         1 KCA       0.142000
     49 H21         -1.8420    -1.7690    -3.7380 ha         1 KCA       0.158000
     50 H22         -3.7880    -2.4120    -5.0800 ha         1 KCA       0.135000
     51 H23         -6.0680    -2.0230    -4.2390 ha         1 KCA       0.133000
     52 H24         -6.4300    -0.9850    -2.0420 ha         1 KCA       0.125000
     53 CAP         -5.2870     0.2180     0.4670 c3         1 KCA       0.121600
@<TRIPOS>BOND
     1    22    21 ar
     2    22    23 ar
     3    21    20 ar
     4    23    18 ar
     5    20    19 ar
     6    18    19 ar
     7    18    26 1
     8    19    11 1
     9    26    53 1
    10    26    25 1
    11    53    12 1
    12    13    12 ar
    13    13    14 ar
    14    11    25 2
    15    11     8 1
    16    12    17 ar
    17    27     8 2
    18    14    15 ar
    19    17    16 ar
    20     8     1 1
    21    15    16 ar
    22    15    24 1
    23     1     2 1
    24     2     3 1
    25     2     5 1
    26     4     3 2
    27     3    28 1
    28    28     9 1
    29     7     5 1
    30     5    10 1
    31     5     6 1
    32     1    29 1
    33     2    30 1
    34     6    31 1
    35     6    32 1
    36     6    33 1
    37     7    34 1
    38     7    35 1
    39     7    36 1
    40     9    37 1
    41     9    38 1
    42     9    39 1
    43    10    40 1
    44    10    41 1
    45    10    42 1
    46    53    43 1
    47    53    44 1
    48    13    45 1
    49    14    46 1
    50    16    47 1
    51    17    48 1
    52    20    49 1
    53    21    50 1
    54    22    51 1
    55    23    52 1
@<TRIPOS>SUBSTRUCTURE
     1 KCA         1 TEMP              0 ****  ****    0 ROOT
