@<TRIPOS>MOLECULE
KCA
   53    55     1     0     0
SMALL
bcc


@<TRIPOS>ATOM
      1 N            0.0000     0.0000     0.0000 ns         1 KCA      -0.171900
      2 CA           1.4650     0.0000     0.0000 c3         1 KCA      -0.022300
      3 C            1.9680     0.0000     1.4200 c          1 KCA       0.696100
      4 O            1.1830    -0.0010     2.3380 o          1 KCA      -0.591000
      5 CB           1.9740     1.2500    -0.7210 c3         1 KCA      -0.078000
      6 CG1          3.5040     1.2500    -0.7210 c3         1 KCA      -0.006433
      7 CG2          1.4640     1.2510    -2.1630 c3         1 KCA      -0.006433
      8 CAB         -0.6750    -0.4970    -1.0560 c          1 KCA       0.553800
      9 CAG          3.7000    -0.0010     3.0570 c3         1 KCA       0.263700
     10 CAL          1.4640     2.4990     0.0020 c3         1 KCA      -0.006433
     11 CAM         -2.1490    -0.4980    -1.0550 cc         1 KCA       0.267900
     12 CAQ         -5.6600    -0.9240     1.3780 ca         1 KCA      -0.153300
     13 CAR         -6.6080    -1.8460     0.9770 ca         1 KCA      -0.050500
     14 CAS         -6.9500    -2.8940     1.8100 ca         1 KCA      -0.132500
     15 CAT         -6.3420    -3.0200     3.0480 ca         1 KCA       0.118900
     16 CAV         -5.3920    -2.0960     3.4490 ca         1 KCA      -0.132500
     17 CAW         -5.0480    -1.0530     2.6110 ca         1 KCA      -0.050500
     18 CAX         -4.3310    -0.7790    -1.6260 ca         1 KCA      -0.250200
     19 CAY         -3.0290    -1.0050    -2.1160 ca         1 KCA      -0.165900
     20 CAZ         -2.8430    -1.5950    -3.3620 ca         1 KCA      -0.020000
     21 CBA         -3.9310    -1.9530    -4.1090 ca         1 KCA      -0.127000
     22 CBB         -5.2170    -1.7330    -3.6350 ca         1 KCA      -0.073000
     23 CBC         -5.4230    -1.1520    -2.4030 ca         1 KCA      -0.103000
     24 FAU         -6.6760    -4.0430     3.8640 f          1 KCA      -0.125900
     25 NAN         -2.9360    -0.0490    -0.1010 nd         1 KCA      -0.603100
     26 NAO         -4.1780    -0.1900    -0.3990 na         1 KCA       0.578900
     27 OAA         -0.0670    -0.9470    -2.0080 o          1 KCA      -0.663100
     28 OAF          3.2880    -0.0000     1.6650 os         1 KCA      -0.403900
     29 H1          -0.5000     0.3410     0.7970 hn         1 KCA       0.208500
     30 H2           1.8260    -0.8840    -0.5110 h1         1 KCA       0.077700
     31 H3           3.8650     0.2300    -0.7740 hc         1 KCA       0.014033
     32 H4           3.8650     1.7140     0.1890 hc         1 KCA       0.014033
     33 H5           3.8650     1.8060    -1.5780 hc         1 KCA       0.014033
     34 H6           1.6960     0.3010    -2.6290 hc         1 KCA       0.014033
     35 H7           1.9440     2.0500    -2.7150 hc         1 KCA       0.014033
     36 H8           0.3920     1.4040    -2.1670 hc         1 KCA       0.014033
     37 H9           3.3070    -0.8820     3.5500 h1         1 KCA       0.002700
     38 H10          3.3190     0.8870     3.5480 h1         1 KCA       0.002700
     39 H11          4.7820    -0.0080     3.1140 h1         1 KCA       0.002700
     40 H12          0.4210     2.6570    -0.2420 hc         1 KCA       0.014033
     41 H13          2.0430     3.3590    -0.3130 hc         1 KCA       0.014033
     42 H14          1.5690     2.3650     1.0720 hc         1 KCA       0.014033
     43 H15         -4.9840     1.0710     1.0630 h1         1 KCA       0.042700
     44 H16         -6.1410     0.4880    -0.1420 h1         1 KCA       0.042700
     45 H17         -7.0840    -1.7470     0.0090 ha         1 KCA       0.114500
     46 H18         -7.6940    -3.6160     1.4960 ha         1 KCA       0.123000
     47 H19         -4.9140    -2.1950     4.4160 ha         1 KCA       0.123000
     48 H20         -4.3040    -0.3290     2.9240 ha         1 KCA       0.114500
     49 H21         -1.8420    -1.7690    -3.7380 ha         1 KCA       0.129000
     50 H22         -3.7880    -2.4120    -5.0800 ha         1 KCA       0.107000
     51 H23         -6.0680    -2.0230    -4.2390 ha         1 KCA       0.102000
     52 H24         -6.4300    -0.9850    -2.0420 ha         1 KCA       0.102000
     53 CAP         -5.2870     0.2180     0.4670 c3         1 KCA       0.036600
@<TRIPOS>BOND
     1     1     2 1   
     2     1     8 1   
     3     1    29 1   
     4     2     3 1   
     5     2     5 1   
     6     2    30 1   
     7     3     4 2   
     8     3    28 1   
     9     5     6 1   
    10     5     7 1   
    11     5    10 1   
    12     6    31 1   
    13     6    32 1   
    14     6    33 1   
    15     7    34 1   
    16     7    35 1   
    17     7    36 1   
    18     8    11 1   
    19     8    27 2   
    20     9    28 1   
    21     9    37 1   
    22     9    38 1   
    23     9    39 1   
    24    10    40 1   
    25    10    41 1   
    26    10    42 1   
    27    11    19 1   
    28    11    25 2   
    29    12    13 ar  
    30    12    17 ar  
    31    12    53 1   
    32    13    14 ar  
    33    13    45 1   
    34    14    15 ar  
    35    14    46 1   
    36    15    16 ar  
    37    15    24 1   
    38    16    17 ar  
    39    16    47 1   
    40    17    48 1   
    41    18    19 ar  
    42    18    23 ar  
    43    18    26 1   
    44    19    20 ar  
    45    20    21 ar  
    46    20    49 1   
    47    21    22 ar  
    48    21    50 1   
    49    22    23 ar  
    50    22    51 1   
    51    23    52 1   
    52    25    26 1   
    53    26    53 1   
    54    43    53 1   
    55    44    53 1   
@<TRIPOS>SUBSTRUCTURE
     1 KCA         1 TEMP              0 ****  ****    0 ROOT
