@<TRIPOS>MOLECULE
KCH
   26    27     1     0     0
SMALL
bcc


@<TRIPOS>ATOM
      1 N01          0.0000     0.0000     0.0000 nv         1 KCH      -0.537200
      2 C02          1.4000     0.0000     0.0000 ca         1 KCH      -0.018400
      3 C03          2.0930     0.0000     1.2050 ca         1 KCH      -0.102000
      4 C04          3.4750     0.0000     1.2120 ca         1 KCH      -0.211000
      5 C05          4.1770     0.0000     0.0180 ca         1 KCH       0.160100
      6 C06          3.4850     0.0010    -1.1970 cp         1 KCH      -0.129500
      7 C07          2.0920    -0.0060    -1.2000 ca         1 KCH      -0.077000
      8 C08          4.2310     0.0010    -2.4780 cp         1 KCH       0.382800
      9 C09          3.8660    -0.8850    -3.4900 ca         1 KCH      -0.179300
     10 C10          4.5800    -0.8710    -4.6890 ca         1 KCH      -0.081600
     11 C11          5.6370     0.0380    -4.8210 ca         1 KCH      -0.180300
     12 C12          5.9350     0.8820    -3.7690 ca         1 KCH       0.348200
     13 N13          5.2370     0.8470    -2.6520 nb         1 KCH      -0.588000
     14 C14          4.2290    -1.7930    -5.7940 c          1 KCH       0.974200
     15 O15          3.3090    -2.5750    -5.6620 o          1 KCH      -0.879800
     16 O16          4.9300    -1.7640    -6.9430 o          1 KCH      -0.879800
     17 O17          5.5360     0.0010     0.0270 oh         1 KCH      -0.446100
     18 H011        -0.5000     0.7860     0.3660 hn         1 KCH       0.262800
     19 H012        -0.5000    -0.7900    -0.3570 hn         1 KCH       0.262800
     20 H03          1.5480    -0.0030     2.1410 ha         1 KCH       0.094000
     21 H07          1.5520     0.0600    -2.1370 ha         1 KCH       0.122000
     22 H04          4.0100    -0.0070     2.1540 ha         1 KCH       0.098000
     23 H17          5.8440    -0.0920     0.9140 ho         1 KCH       0.381000
     24 H09          3.0410    -1.5730    -3.3480 ha         1 KCH       0.130000
     25 H11          6.2150     0.0760    -5.7360 ha         1 KCH       0.134000
     26 H12          6.7500     1.5880    -3.8670 h4         1 KCH      -0.039900
@<TRIPOS>BOND
     1     1     2 1   
     2     1    18 1   
     3     1    19 1   
     4     2     3 ar  
     5     2     7 ar  
     6     3     4 ar  
     7     3    20 1   
     8     4     5 ar  
     9     4    22 1   
    10     5     6 ar  
    11     5    17 1   
    12     6     7 ar  
    13     6     8 1   
    14     7    21 1   
    15     8     9 ar  
    16     8    13 ar  
    17     9    10 ar  
    18     9    24 1   
    19    10    11 ar  
    20    10    14 1   
    21    11    12 ar  
    22    11    25 1   
    23    12    13 ar  
    24    12    26 1   
    25    14    15 1   
    26    14    16 1   
    27    17    23 1   
@<TRIPOS>SUBSTRUCTURE
     1 KCH         1 TEMP              0 ****  ****    0 ROOT
