@<TRIPOS>MOLECULE
KCP
   37    38     1     0     0
SMALL
bcc


@<TRIPOS>ATOM
      1 S1           0.0000     0.0000     0.0000 ss         1 KCP      -0.545200
      2 C2           1.8190     0.0000     0.0000 c3         1 KCP       0.205900
      3 C3           2.3270     0.0000     1.4110 c2         1 KCP      -0.336400
      4 C3'          3.7180    -0.5310     1.6420 c3         1 KCP       0.083100
      5 C4           1.6650     0.4290     2.4620 ce         1 KCP      -0.018200
      6 C4'          2.3560     0.3580     3.7610 c          1 KCP       0.973800
      7 O4A          1.7340     0.7800     4.8790 o          1 KCP      -0.887800
      8 O4B          3.4870    -0.0830     3.8260 o          1 KCP      -0.887800
      9 N5           0.3730     0.9430     2.4600 nu         1 KCP      -0.376000
     10 C6          -0.2750     1.3380     1.2030 c3         1 KCP       0.285600
     11 C7          -1.7750     1.5320     1.4300 c3         1 KCP      -0.104300
     12 C8          -1.9920     2.6110     2.4610 c          1 KCP       0.972600
     13 O9A         -2.0560     2.3240     3.6310 o          1 KCP      -0.877800
     14 O9B         -2.1110     3.8910     2.0760 o          1 KCP      -0.877800
     15 N10         -2.4120     1.9240     0.1720 ns         1 KCP      -0.088900
     16 C11         -3.6940     1.5840    -0.0700 c          1 KCP       0.551100
     17 O12         -4.3180     0.9530     0.7550 o          1 KCP      -0.663100
     18 C13         -4.3500     1.9890    -1.3640 c3         1 KCP      -0.005100
     19 C14         -5.7720     1.4890    -1.3840 cc         1 KCP       0.146600
     20 C15         -6.8980     2.1020    -0.9480 cd         1 KCP      -0.171000
     21 C16         -8.1090     1.4480    -1.0720 cd         1 KCP      -0.125000
     22 C17         -8.1330     0.2080    -1.6170 cc         1 KCP      -0.011100
     23 S19         -6.4080    -0.0670    -1.9830 ss         1 KCP      -0.347800
     24 H21          2.1770     0.8860    -0.5100 h1         1 KCP       0.017700
     25 H22          2.1770    -0.8860    -0.5100 h1         1 KCP       0.017700
     26 H3'1         4.3360     0.2480     2.0720 hc         1 KCP      -0.001300
     27 H3'2         4.1450    -0.8500     0.6990 hc         1 KCP      -0.001300
     28 H3'3         3.6750    -1.3740     2.3220 hc         1 KCP      -0.001300
     29 H5          -0.1200     1.0460     3.3250 hn         1 KCP       0.363800
     30 H6           0.1680     2.2560     0.8360 h2         1 KCP       0.046700
     31 H7          -2.2110     0.6040     1.7820 h1         1 KCP       0.077700
     32 H10         -1.9010     2.4600    -0.5020 hn         1 KCP       0.159500
     33 H131        -4.3460     3.0690    -1.4490 hc         1 KCP       0.030200
     34 H132        -3.8050     1.5590    -2.1960 hc         1 KCP       0.030200
     35 H15         -6.8510     3.0940    -0.5150 ha         1 KCP       0.122000
     36 H16         -9.0250     1.9180    -0.7330 ha         1 KCP       0.096000
     37 H17         -8.9800    -0.4450    -1.7880 h4         1 KCP       0.146000
@<TRIPOS>BOND
     1     1     2 1   
     2     1    10 1   
     3     2     3 1   
     4     2    24 1   
     5     2    25 1   
     6     3     4 1   
     7     3     5 2   
     8     4    26 1   
     9     4    27 1   
    10     4    28 1   
    11     5     6 1   
    12     5     9 1   
    13     6     7 1   
    14     6     8 1   
    15     9    10 1   
    16     9    29 1   
    17    10    11 1   
    18    10    30 1   
    19    11    12 1   
    20    11    15 1   
    21    11    31 1   
    22    12    13 1   
    23    12    14 1   
    24    15    16 1   
    25    15    32 1   
    26    16    17 2   
    27    16    18 1   
    28    18    19 1   
    29    18    33 1   
    30    18    34 1   
    31    19    20 2   
    32    19    23 1   
    33    20    21 1   
    34    20    35 1   
    35    21    22 2   
    36    21    36 1   
    37    22    23 1   
    38    22    37 1   
@<TRIPOS>SUBSTRUCTURE
     1 KCP         1 TEMP              0 ****  ****    0 ROOT
