@<TRIPOS>MOLECULE
molecule
   27    27     1     0     0
SMALL
bcc


@<TRIPOS>ATOM
      1 OAD          0.0000     0.0000     0.0000 o          1 KCQ      -0.602500
      2 CD2          1.2130     0.0000     0.0000 c          1 KCQ       0.706500
      3 NAH          1.9820     0.0000     1.1030 ns         1 KCQ      -0.570900
      4 CAE          3.4080     0.0080     0.7570 c3         1 KCQ       0.098000
      5 CD1          3.4760    -0.4220    -0.7260 c3         1 KCQ      -0.104400
      6 CG           2.0800    -0.0080    -1.2390 c3         1 KCQ      -0.187700
      7 CB           1.5560    -1.0270    -2.2530 c3         1 KCQ      -0.085400
      8 CA           2.3750    -0.9320    -3.5420 c3         1 KCQ      -0.006500
      9 N            2.1490     0.3770    -4.1700 nz         1 KCQ      -0.810600
     10 C            1.9500    -2.0240    -4.4890 c          1 KCQ       0.554100
     11 O            1.2630    -1.7590    -5.4470 o          1 KCQ      -0.491100
     12 CMK          2.3800    -3.4470    -4.2410 c3         1 KCQ      -0.177100
     13 HN1          1.4310     0.8660    -3.6730 hn         1 KCQ       0.463800
     14 HN2          2.9950     0.9110    -4.1430 hn         1 KCQ       0.463800
     15 HA           3.4270    -1.0440    -3.3110 hx         1 KCQ       0.126700
     16 HMK1         1.6420    -3.9440    -3.6230 hc         1 KCQ       0.090033
     17 HMK2         3.3370    -3.4510    -3.7340 hc         1 KCQ       0.090033
     18 HMK3         2.4700    -3.9670    -5.1860 hc         1 KCQ       0.090033
     19 HB1          1.6460    -2.0250    -1.8410 hc         1 KCQ       0.104200
     20 HB2          0.5150    -0.8180    -2.4700 hc         1 KCQ       0.104200
     21 HG           2.1190     0.9830    -1.6760 hc         1 KCQ       0.057700
     22 HAH          1.6270    -0.0060     2.0390 hn         1 KCQ       0.366500
     23 HAE1         3.9460    -0.6990     1.3760 h1         1 KCQ       0.066700
     24 HAE2         3.8150     1.0050     0.8760 h1         1 KCQ       0.066700
     25 HD11         4.2550     0.1200    -1.2480 hc         1 KCQ       0.061200
     26 HD12         3.6150    -1.4930    -0.8100 hc         1 KCQ       0.061200
     27 HN3          1.8590     0.2470    -5.1190 hn         1 KCQ       0.463800
@<TRIPOS>BOND
     1     1     2 2
     2     2     6 1
     3     2     3 1
     4     3    22 1
     5     3     4 1
     6     4    23 1
     7     4    24 1
     8     4     5 1
     9     5     6 1
    10     5    25 1
    11     5    26 1
    12     6     7 1
    13     6    21 1
    14     7     8 1
    15     7    19 1
    16     7    20 1
    17     8     9 1
    18     8    15 1
    19     8    10 1
    20     9    13 1
    21     9    14 1
    22    10    11 2
    23    10    12 1
    24    12    16 1
    25    12    17 1
    26    12    18 1
    27    27     9 1
@<TRIPOS>SUBSTRUCTURE
     1 KCQ         1 TEMP              0 ****  ****    0 ROOT
