@<TRIPOS>MOLECULE
KCS
    6     5     1     0     0
SMALL
bcc


@<TRIPOS>ATOM
      1 SAA         0.0870   -0.5090   -0.4320 sh        1 KCS     -0.177400
      2 CAB         1.6800   -0.0050   -0.1430 c         1 KCS      0.201600
      3 SAC         2.4580   -0.0550    1.1860 s         1 KCS     -0.291400
      4 SAD         2.2260    0.5680   -1.6430 sh        1 KCS     -0.177400
      5 HSAA       -0.2590   -0.9380    0.7780 hs        1 KCS      0.221800
      6 HSAD        3.4640    0.9390   -1.3300 hs        1 KCS      0.221800
@<TRIPOS>BOND
     1    1    2 1   
     2    1    5 1   
     3    2    3 2   
     4    2    4 1   
     5    4    6 1   
@<TRIPOS>SUBSTRUCTURE
     1 KCS         1 TEMP              0 ****  ****    0 ROOT
