@<TRIPOS>MOLECULE
molecule
    6     5     1     0     0
SMALL
bcc


@<TRIPOS>ATOM
      1 SAA          0.0000     0.0000     0.0000 sh         1 KCS      -0.268400
      2 CAB          1.7620     0.0000     0.0000 cs         1 KCS       0.344600
      3 SAC          2.6180     0.0000     1.4830 s          1 KCS      -0.277400
      4 SAD          2.6430    -0.0000    -1.5260 sh         1 KCS      -0.268400
      5 HSAA        -0.4430     1.2220     0.2710 hs         1 KCS       0.234800
      6 HSAD         3.1000    -1.2220    -1.7730 hs         1 KCS       0.234800
@<TRIPOS>BOND
     1     2     1 1
     2     1     5 1
     3     3     2 2
     4     4     2 1
     5     4     6 1
@<TRIPOS>SUBSTRUCTURE
     1 KCS         1 TEMP              0 ****  ****    0 ROOT
