@<TRIPOS>MOLECULE
molecule
   39    44     1     0     0
SMALL
bcc


@<TRIPOS>ATOM
      1 O27          0.0000     0.0000     0.0000 o          1 KCT      -0.817800
      2 C25          1.3420     0.0000     0.0000 c          1 KCT       0.888600
      3 O26          1.9460     0.0000     1.0470 o          1 KCT      -0.817800
      4 C7           2.0970     0.0010    -1.3050 c3         1 KCT       0.029000
      5 N6           3.3160     0.8070    -1.1820 ns         1 KCT      -0.544900
      6 C22          2.5480    -1.3980    -1.6440 ca         1 KCT       0.002700
      7 C21          1.8660    -2.5860    -1.8790 cp         1 KCT      -0.037000
      8 C20          0.4340    -2.9430    -1.8900 cp         1 KCT      -0.073000
      9 C8          -0.7350    -2.2190    -1.6680 ca         1 KCT      -0.039000
     10 C9          -1.9580    -2.8510    -1.7510 ca         1 KCT      -0.177000
     11 C10         -2.0260    -4.2020    -2.0530 ca         1 KCT      -0.105000
     12 C11         -0.8760    -4.9310    -2.2740 ca         1 KCT      -0.187000
     13 C19          0.3670    -4.3100    -2.1960 ca         1 KCT      -0.011200
     14 N12          1.6560    -4.7810    -2.3660 na         1 KCT      -0.197300
     15 C18          2.5680    -3.7630    -2.1800 ca         1 KCT      -0.008200
     16 C17          3.9680    -3.7370    -2.2440 ca         1 KCT      -0.053200
     17 C16          4.6500    -2.5420    -2.0060 cp         1 KCT       0.005000
     18 C23          3.9370    -1.3610    -1.7020 ca         1 KCT      -0.157600
     19 C5           4.3770     0.0150    -1.4130 c          1 KCT       0.727100
     20 O24          5.5360     0.3820    -1.3880 o          1 KCT      -0.694500
     21 N13          4.8990    -4.7270    -2.5130 na         1 KCT      -0.197300
     22 C14          6.1770    -4.2070    -2.4580 ca         1 KCT      -0.000200
     23 C15          6.0850    -2.8420    -2.1440 cp         1 KCT      -0.082000
     24 C1           7.4330    -4.7790    -2.6470 ca         1 KCT      -0.181000
     25 C2           8.5670    -4.0080    -2.5280 ca         1 KCT      -0.103000
     26 C3           8.4740    -2.6590    -2.2180 ca         1 KCT      -0.188000
     27 C4           7.2420    -2.0730    -2.0270 ca         1 KCT      -0.047000
     28 H2           1.4740     0.3910    -2.1000 h1         1 KCT       0.068700
     29 H3           3.3520     1.7830    -0.9640 hn         1 KCT       0.345500
     30 H4          -0.6850    -1.1630    -1.4320 ha         1 KCT       0.215000
     31 H5          -2.8680    -2.2900    -1.5790 ha         1 KCT       0.128000
     32 H6          -2.9910    -4.6910    -2.1150 ha         1 KCT       0.112000
     33 H7          -0.9400    -5.9860    -2.5100 ha         1 KCT       0.108000
     34 H8           1.8930    -5.7270    -2.5920 hn         1 KCT       0.280700
     35 H9           4.6770    -5.6810    -2.7170 hn         1 KCT       0.283700
     36 H10          7.5170    -5.8320    -2.8900 ha         1 KCT       0.113000
     37 H11          9.5410    -4.4580    -2.6770 ha         1 KCT       0.115000
     38 H12          9.3740    -2.0630    -2.1280 ha         1 KCT       0.122000
     39 H13          7.1720    -1.0200    -1.7850 ha         1 KCT       0.177000
@<TRIPOS>BOND
     1    25    24 ar
     2    25    26 ar
     3    24    22 ar
     4    26    27 ar
     5    22    23 ar
     6    22    21 1
     7    27    23 ar
     8    23    17 1
     9    21    16 1
    10    17    16 ar
    11    17    18 ar
    12    16    15 ar
    13    20    19 2
    14    15    14 1
    15    15     7 ar
    16    14    13 1
    17    18    19 1
    18    18     6 ar
    19    19     5 1
    20     7     6 ar
    21     7     8 1
    22     6     4 1
    23    13    12 ar
    24    13     8 ar
    25     5     4 1
    26    12    11 ar
    27     8     9 ar
    28     4     2 1
    29     3     2 1
    30     2     1 1
    31    11    10 ar
    32     9    10 ar
    33     4    28 1
    34     5    29 1
    35     9    30 1
    36    10    31 1
    37    11    32 1
    38    12    33 1
    39    14    34 1
    40    21    35 1
    41    24    36 1
    42    25    37 1
    43    26    38 1
    44    27    39 1
@<TRIPOS>SUBSTRUCTURE
     1 KCT         1 TEMP              0 ****  ****    0 ROOT
