@<TRIPOS>MOLECULE
KCT
   39    44     1     0     0
SMALL
bcc


@<TRIPOS>ATOM
      1 O27          0.0000     0.0000     0.0000 o          1 KCT      -0.864300
      2 C25          1.3420     0.0000     0.0000 c          1 KCT       0.975600
      3 O26          1.9460     0.0000     1.0470 o          1 KCT      -0.864300
      4 C7           2.0970     0.0010    -1.3050 c3         1 KCT      -0.062000
      5 N6           3.3160     0.8070    -1.1820 ns         1 KCT      -0.130900
      6 C22          2.5480    -1.3980    -1.6440 ca         1 KCT       0.013700
      7 C21          1.8660    -2.5860    -1.8790 cp         1 KCT      -0.030000
      8 C20          0.4340    -2.9430    -1.8900 cp         1 KCT      -0.063000
      9 C8          -0.7350    -2.2190    -1.6680 ca         1 KCT      -0.028000
     10 C9          -1.9580    -2.8510    -1.7510 ca         1 KCT      -0.151000
     11 C10         -2.0260    -4.2020    -2.0530 ca         1 KCT      -0.085000
     12 C11         -0.8760    -4.9310    -2.2740 ca         1 KCT      -0.154000
     13 C19          0.3670    -4.3100    -2.1960 ca         1 KCT      -0.197200
     14 N12          1.6560    -4.7810    -2.3660 na         1 KCT       0.318700
     15 C18          2.5680    -3.7630    -2.1800 ca         1 KCT      -0.179200
     16 C17          3.9680    -3.7370    -2.2440 ca         1 KCT      -0.226200
     17 C16          4.6500    -2.5420    -2.0060 cp         1 KCT       0.021000
     18 C23          3.9370    -1.3610    -1.7020 ca         1 KCT      -0.165600
     19 C5           4.3770     0.0150    -1.4130 c          1 KCT       0.648100
     20 O24          5.5360     0.3820    -1.3880 o          1 KCT      -0.743500
     21 N13          4.8990    -4.7270    -2.5130 na         1 KCT       0.318700
     22 C14          6.1770    -4.2070    -2.4580 ca         1 KCT      -0.185200
     23 C15          6.0850    -2.8420    -2.1440 cp         1 KCT      -0.077000
     24 C1           7.4330    -4.7790    -2.6470 ca         1 KCT      -0.147000
     25 C2           8.5670    -4.0080    -2.5280 ca         1 KCT      -0.081000
     26 C3           8.4740    -2.6590    -2.2180 ca         1 KCT      -0.167000
     27 C4           7.2420    -2.0730    -2.0270 ca         1 KCT      -0.021000
     28 H2           1.4740     0.3910    -2.1000 h1         1 KCT       0.042700
     29 H3           3.3520     1.7830    -0.9640 hn         1 KCT       0.191500
     30 H4          -0.6850    -1.1630    -1.4320 ha         1 KCT       0.192000
     31 H5          -2.8680    -2.2900    -1.5790 ha         1 KCT       0.101000
     32 H6          -2.9910    -4.6910    -2.1150 ha         1 KCT       0.084000
     33 H7          -0.9400    -5.9860    -2.5100 ha         1 KCT       0.087000
     34 H8           1.8930    -5.7270    -2.5920 hn         1 KCT       0.101700
     35 H9           4.6770    -5.6810    -2.7170 hn         1 KCT       0.103700
     36 H10          7.5170    -5.8320    -2.8900 ha         1 KCT       0.090000
     37 H11          9.5410    -4.4580    -2.6770 ha         1 KCT       0.087000
     38 H12          9.3740    -2.0630    -2.1280 ha         1 KCT       0.097000
     39 H13          7.1720    -1.0200    -1.7850 ha         1 KCT       0.150000
@<TRIPOS>BOND
     1     1     2 1   
     2     2     3 1   
     3     2     4 1   
     4     4     5 1   
     5     4     6 1   
     6     4    28 1   
     7     5    19 1   
     8     5    29 1   
     9     6     7 ar  
    10     6    18 ar  
    11     7     8 1   
    12     7    15 ar  
    13     8     9 ar  
    14     8    13 ar  
    15     9    10 ar  
    16     9    30 1   
    17    10    11 ar  
    18    10    31 1   
    19    11    12 ar  
    20    11    32 1   
    21    12    13 ar  
    22    12    33 1   
    23    13    14 1   
    24    14    15 1   
    25    14    34 1   
    26    15    16 ar  
    27    16    17 ar  
    28    16    21 1   
    29    17    18 ar  
    30    17    23 1   
    31    18    19 1   
    32    19    20 2   
    33    21    22 1   
    34    21    35 1   
    35    22    23 ar  
    36    22    24 ar  
    37    23    27 ar  
    38    24    25 ar  
    39    24    36 1   
    40    25    26 ar  
    41    25    37 1   
    42    26    27 ar  
    43    26    38 1   
    44    27    39 1   
@<TRIPOS>SUBSTRUCTURE
     1 KCT         1 TEMP              0 ****  ****    0 ROOT
