@<TRIPOS>MOLECULE
molecule
   32    31     1     0     0
SMALL
bcc


@<TRIPOS>ATOM
      1 O4P          0.0000     0.0000     0.0000 o          1 KD0      -0.918833
      2 P            1.6090     0.0000     0.0000 p5         1 KD0       1.195900
      3 O2P          2.1030     0.0000     1.3960 o          1 KD0      -0.918833
      4 O3P          2.1470    -1.3130    -0.7590 o          1 KD0      -0.918833
      5 O1P          2.1460     1.3150    -0.7580 os         1 KD0      -0.584200
      6 C8           1.9280     2.6400    -0.2690 c3         1 KD0       0.205400
      7 C7           2.5660     3.6490    -1.2250 c3         1 KD0       0.115100
      8 O7           1.8980     3.5970    -2.4880 oh         1 KD0      -0.623800
      9 C6           2.4400     5.0570    -0.6400 c3         1 KD0       0.138100
     10 O6           3.1090     5.1080     0.6230 oh         1 KD0      -0.598800
     11 C5           3.0790     6.0660    -1.5960 c3         1 KD0       0.134100
     12 O5           4.4280     5.6790    -1.8670 oh         1 KD0      -0.593800
     13 C4           3.0660     7.4550    -0.9550 c3         1 KD0       0.135100
     14 O4           1.7170     7.8430    -0.6850 oh         1 KD0      -0.614800
     15 C3           3.7040     8.4640    -1.9120 c3         1 KD0      -0.198400
     16 C1           3.8030     9.8060    -1.2340 c          1 KD0       0.484100
     17 O3           3.4040     9.9420    -0.1020 o          1 KD0      -0.560100
     18 C2           4.3930    10.9670    -1.9590 c          1 KD0       0.807600
     19 O1           4.7940    10.8310    -3.0960 o          1 KD0      -0.831300
     20 O2           4.4800    12.1650    -1.3540 o          1 KD0      -0.831300
     21 H8           2.3740     2.7400     0.7130 h1         1 KD0       0.018200
     22 H8A          0.8630     2.8290    -0.2030 h1         1 KD0       0.018200
     23 H7           3.6130     3.4060    -1.3600 h1         1 KD0       0.052700
     24 HO7          2.4080     3.0850    -3.0930 ho         1 KD0       0.400000
     25 H6           1.3930     5.3010    -0.5050 h1         1 KD0       0.050700
     26 HO6          2.4700     5.1200     1.3170 ho         1 KD0       0.394000
     27 H5           2.5180     6.0900    -2.5220 h1         1 KD0       0.051700
     28 HO5          4.5610     5.6360    -2.7990 ho         1 KD0       0.386000
     29 H4           3.6270     7.4300    -0.0290 h1         1 KD0       0.063700
     30 HO4          1.6240     8.0390     0.2330 ho         1 KD0       0.403000
     31 H3           4.6960     8.1250    -2.1860 hc         1 KD0       0.069700
     32 H3A          3.0940     8.5540    -2.8020 hc         1 KD0       0.069700
@<TRIPOS>BOND
     1     1     2 1
     2     3     2 1
     3     5     2 1
     4     2     4 1
     5     6     5 1
     6     6     7 1
     7     6    21 1
     8     6    22 1
     9     9     7 1
    10     7     8 1
    11     7    23 1
    12     8    24 1
    13    10     9 1
    14     9    11 1
    15     9    25 1
    16    10    26 1
    17    13    11 1
    18    11    12 1
    19    11    27 1
    20    12    28 1
    21    14    13 1
    22    13    15 1
    23    13    29 1
    24    14    30 1
    25    16    15 1
    26    15    31 1
    27    15    32 1
    28    17    16 2
    29    16    18 1
    30    19    18 1
    31    18    20 1
@<TRIPOS>SUBSTRUCTURE
     1 KD0         1 TEMP              0 ****  ****    0 ROOT
