@<TRIPOS>MOLECULE
KD0
   32    31     1     0     0
SMALL
bcc


@<TRIPOS>ATOM
      1 O4P         0.5840   -0.0530    0.6400 o         1 KD0     -0.932167
      2 P           1.8440    0.0700   -0.1720 p5        1 KD0      1.313900
      3 O2P         3.0470    0.5620    0.5890 o         1 KD0     -0.932167
      4 O3P         2.0810   -0.9870   -1.2130 o         1 KD0     -0.932167
      5 O1P         1.5040    1.4780   -1.1590 os        1 KD0     -0.568200
      6 C8          1.5120    2.6560   -0.4620 c3        1 KD0      0.207400
      7 C7          2.6140    3.5860   -1.0330 c3        1 KD0      0.056100
      8 O7          2.5790    3.6010   -2.4540 oh        1 KD0     -0.660800
      9 C6          2.4610    5.0290   -0.5180 c3        1 KD0      0.112100
     10 O6          3.0850    5.1680    0.7560 oh        1 KD0     -0.629800
     11 C5          3.0630    6.0750   -1.4740 c3        1 KD0      0.157100
     12 O5          4.4370    5.8370   -1.7470 oh        1 KD0     -0.621800
     13 C4          2.9610    7.5030   -0.9010 c3        1 KD0      0.156100
     14 O4          1.5680    7.8020   -0.8490 oh        1 KD0     -0.624800
     15 C3          3.6980    8.5180   -1.7700 c3        1 KD0     -0.217400
     16 C1          3.6360    9.9350   -1.2760 c         1 KD0      0.481100
     17 O3          2.9490   10.2610   -0.2940 o         1 KD0     -0.622100
     18 C2          4.4480   10.9580   -2.0820 c         1 KD0      0.849600
     19 O1          3.8880   11.4880   -3.0820 o         1 KD0     -0.833300
     20 O2          5.6260   11.2100   -1.7060 o         1 KD0     -0.833300
     21 H8          0.5220    3.1900   -0.5900 h1        1 KD0     -0.001300
     22 H8A         1.7110    2.4920    0.6330 h1        1 KD0     -0.001300
     23 H7          3.6210    3.1820   -0.7210 h1        1 KD0      0.056700
     24 HO7         2.2270    2.7320   -2.7130 ho        1 KD0      0.445000
     25 H6          1.3690    5.2830   -0.3910 h1        1 KD0      0.051700
     26 HO6         3.1070    4.2880    1.1570 ho        1 KD0      0.419000
     27 H5          2.4850    6.0170   -2.4400 h1        1 KD0      0.050700
     28 HO5         4.5060    4.8910   -1.9400 ho        1 KD0      0.420000
     29 H4          3.3860    7.5140    0.1410 h1        1 KD0      0.057700
     30 HO4         1.5000    8.6610   -0.4120 ho        1 KD0      0.412000
     31 H3          3.2720    8.5050   -2.8080 hc        1 KD0      0.081700
     32 H3A         4.7770    8.2120   -1.8400 hc        1 KD0      0.081700
@<TRIPOS>BOND
     1    1    2 1   
     2    2    3 1   
     3    2    4 1   
     4    2    5 1   
     5    5    6 1   
     6    6    7 1   
     7    6   21 1   
     8    6   22 1   
     9    7    8 1   
    10    7    9 1   
    11    7   23 1   
    12    8   24 1   
    13    9   10 1   
    14    9   11 1   
    15    9   25 1   
    16   10   26 1   
    17   11   12 1   
    18   11   13 1   
    19   11   27 1   
    20   12   28 1   
    21   13   14 1   
    22   13   15 1   
    23   13   29 1   
    24   14   30 1   
    25   15   16 1   
    26   15   31 1   
    27   15   32 1   
    28   16   17 2   
    29   16   18 1   
    30   18   19 1   
    31   18   20 1   
@<TRIPOS>SUBSTRUCTURE
     1 KD0         1 TEMP              0 ****  ****    0 ROOT
