@<TRIPOS>MOLECULE
molecule
   26    26     1     0     0
SMALL
bcc


@<TRIPOS>ATOM
      1 O5           0.0000     0.0000     0.0000 oh         1 KD5      -0.606800
      2 C4           1.9680    -1.3100    -0.6050 c3         1 KD5       0.130100
      3 C5           1.4280     0.0000     0.0000 c3         1 KD5       0.087100
      4 C6           1.9700     0.0000     1.4510 c3         1 KD5       0.091100
      5 O6           2.4140     1.3040     1.8300 oh         1 KD5      -0.601800
      6 C7           3.1640    -0.9830     1.3510 c3         1 KD5       0.133100
      7 O7           2.6970    -1.9940     0.4290 os         1 KD5      -0.363600
      8 C8           3.4700    -1.5990     2.7190 c3         1 KD5       0.150400
      9 H1          -0.3140     0.7600    -0.4610 ho         1 KD5       0.398000
     10 H2           1.1430    -1.9270    -0.9390 h1         1 KD5       0.097700
     11 H4           1.8130     0.8530    -0.5450 h1         1 KD5       0.063700
     12 H5           1.2220    -0.3750     2.1390 h1         1 KD5       0.055700
     13 H6           1.7980     1.6820     2.4360 ho         1 KD5       0.396000
     14 H7           4.0360    -0.4790     0.9500 h1         1 KD5       0.079700
     15 H8           4.8410    -2.7770     3.4700 ho         1 KD5       0.390000
     16 H9           2.6340    -2.2100     3.0350 h1         1 KD5       0.020700
     17 H10          3.6340    -0.8090     3.4420 h1         1 KD5       0.020700
     18 C3           2.9010    -0.9970    -1.7770 c3         1 KD5      -0.208400
     19 C2           3.3320    -2.2840    -2.4330 c          1 KD5       0.475100
     20 C1           4.2490    -2.2500    -3.6080 c          1 KD5       0.808600
     21 O2           2.9350    -3.3420    -2.0070 o          1 KD5      -0.529100
     22 OH           4.6340    -3.3980    -4.1940 o          1 KD5      -0.816300
     23 O1           4.6470    -1.1870    -4.0360 o          1 KD5      -0.816300
     24 H3           3.7740    -0.4680    -1.4130 hc         1 KD5       0.066700
     25 H11          2.3800    -0.3810    -2.4990 hc         1 KD5       0.066700
     26 O8           4.6440    -2.4090     2.6240 oh         1 KD5      -0.586800
@<TRIPOS>BOND
     1    26     8 1
     2     8     6 1
     3     6     4 1
     4     6     7 1
     5     4     5 1
     6     4     3 1
     7     1     3 1
     8     7     2 1
     9     3     2 1
    10     1     9 1
    11     2    10 1
    12     3    11 1
    13     4    12 1
    14     5    13 1
    15     6    14 1
    16    26    15 1
    17     8    16 1
    18     8    17 1
    19     2    18 1
    20    18    19 1
    21    19    20 1
    22    19    21 2
    23    20    22 1
    24    20    23 1
    25    18    24 1
    26    18    25 1
@<TRIPOS>SUBSTRUCTURE
     1 KD5         1 TEMP              0 ****  ****    0 ROOT
