@<TRIPOS>MOLECULE
KD5
   26    24     1     0     0
SMALL
bcc


@<TRIPOS>ATOM
      1 O5         -0.0320    2.3670    3.6050 oh        1 KD5     -0.540100
      2 C4          3.0220   -2.4540   -1.9030 c3        1 KD5      0.131400
      3 C5          0.7640    1.4760    2.9010 c2        1 KD5     -0.134900
      4 C6          1.8520    0.9580    3.5220 ce        1 KD5      0.124100
      5 O6          2.2040    1.3260    4.8110 oh        1 KD5     -0.518100
      6 C7          2.7520   -0.0350    2.9800 ce        1 KD5     -0.226000
      7 O7          3.5980   -1.6380   -0.8890 oh        1 KD5     -0.657800
      8 C8          2.7410   -0.5450    1.7310 c2        1 KD5      0.065100
      9 H1         -0.2110    3.0990    2.9980 ho        1 KD5      0.406000
     10 H2          2.4050   -3.2090   -1.3460 h1        1 KD5      0.049700
     11 H4          2.3440   -1.8230   -2.5380 h1        1 KD5      0.049700
     12 H5          0.4340    1.2000    1.8920 h4        1 KD5      0.166000
     13 H6          1.5770    2.0040    5.1040 ho        1 KD5      0.423000
     14 H7          4.3090   -1.1310   -1.2960 ho        1 KD5      0.406000
     15 H8          2.0010   -0.6340   -0.0200 ho        1 KD5      0.449000
     16 H9          3.5230   -0.3930    3.6830 ha        1 KD5      0.148000
     17 H10         3.4730   -1.3020    1.3970 h4        1 KD5      0.155000
     18 C3          4.0680   -3.1300   -2.7600 c3        1 KD5     -0.238400
     19 C2          3.4780   -3.9340   -3.8930 c         1 KD5      0.471100
     20 C1          4.5420   -4.4630   -4.8720 c         1 KD5      0.858600
     21 O2          2.2600   -4.1100   -3.9930 o         1 KD5     -0.589100
     22 OH          4.9390   -5.6440   -4.7070 o         1 KD5     -0.808800
     23 O1          4.9640   -3.6450   -5.7320 o         1 KD5     -0.808800
     24 H3          4.6960   -3.8210   -2.1380 hc        1 KD5      0.072200
     25 H11         4.7540   -2.3660   -3.2160 hc        1 KD5      0.072200
     26 O8          1.8190   -0.1450    0.8020 oh        1 KD5     -0.524100
@<TRIPOS>BOND
     1    1    3 1   
     2    1    9 1   
     3    2    7 1   
     4    2   10 1   
     5    2   11 1   
     6    2   18 1   
     7    3    4 2   
     8    3   12 1   
     9    4    5 1   
    10    4    6 1   
    11    5   13 1   
    12    6    8 2   
    13    6   16 1   
    14    7   14 1   
    15    8   17 1   
    16    8   26 1   
    17   15   26 1   
    18   18   19 1   
    19   18   24 1   
    20   18   25 1   
    21   19   20 1   
    22   19   21 2   
    23   20   22 1   
    24   20   23 1   
@<TRIPOS>SUBSTRUCTURE
     1 KD5         1 TEMP              0 ****  ****    0 ROOT
