@<TRIPOS>MOLECULE
molecule
   25    25     1     0     0
SMALL
bcc


@<TRIPOS>ATOM
      1 O2           1.4300     0.0000     0.0000 oh         1 KDB      -0.647800
      2 C2           0.0000     0.0000     0.0000 c3         1 KDB       0.276800
      3 C1          -0.4980     0.0000     1.4220 c          1 KDB       0.881600
      4 O1B         -1.1160     0.9480     1.8460 o          1 KDB      -0.816800
      5 O1A         -0.2570    -1.0540     2.2190 o          1 KDB      -0.816800
      6 C3          -0.4980    -1.2310    -0.7020 c2         1 KDB      -0.149200
      7 C4          -0.9930    -1.2070    -1.9040 c2         1 KDB      -0.207200
      8 C5          -1.1180     0.0630    -2.7000 c3         1 KDB      -0.061200
      9 C6          -0.2350     1.1490    -2.0770 c3         1 KDB       0.141100
     10 O6          -0.4740     1.1700    -0.6680 os         1 KDB      -0.379600
     11 C7          -0.5890     2.5100    -2.6830 c3         1 KDB       0.158100
     12 O7          -0.3720     2.4750    -4.0940 oh         1 KDB      -0.614800
     13 C8           0.2960     3.5900    -2.0580 c3         1 KDB       0.109400
     14 O8          -0.1120     4.8740    -2.5360 oh         1 KDB      -0.633800
     15 HO2          1.7440    -0.3500     0.8170 ho         1 KDB       0.431000
     16 H3          -0.4420    -2.1810    -0.1840 ha         1 KDB       0.142000
     17 H4          -1.3280    -2.1360    -2.3490 ha         1 KDB       0.101000
     18 H5          -0.7990    -0.1190    -3.7190 hc         1 KDB       0.043200
     19 H5A         -2.1500     0.3910    -2.6920 hc         1 KDB       0.043200
     20 H6           0.8070     0.9210    -2.2650 h1         1 KDB       0.058700
     21 H7          -1.6290     2.7340    -2.4820 h1         1 KDB       0.049700
     22 HO7         -0.9520     3.0870    -4.5160 ho         1 KDB       0.402000
     23 H8           1.3290     3.4140    -2.3310 h1         1 KDB       0.047200
     24 H8A          0.1970     3.5580    -0.9790 h1         1 KDB       0.047200
     25 HO8          0.3930     5.5440    -2.1060 ho         1 KDB       0.396000
@<TRIPOS>BOND
     1     1     2 1
     2     1    15 1
     3     2     3 1
     4     2     6 1
     5     2    10 1
     6     4     3 1
     7     3     5 1
     8     6     7 2
     9     6    16 1
    10     7     8 1
    11     7    17 1
    12     9     8 1
    13     8    18 1
    14     8    19 1
    15    10     9 1
    16     9    11 1
    17     9    20 1
    18    11    13 1
    19    11    12 1
    20    11    21 1
    21    12    22 1
    22    14    13 1
    23    13    23 1
    24    13    24 1
    25    14    25 1
@<TRIPOS>SUBSTRUCTURE
     1 KDB         1 TEMP              0 ****  ****    0 ROOT
