@<TRIPOS>MOLECULE
KDB
   25    25     1     0     0
SMALL
bcc


@<TRIPOS>ATOM
      1 O2          1.3090   -0.3640   -0.2060 oh        1 KDB     -0.647800
      2 C2         -0.0830   -0.1610   -0.0870 c3        1 KDB      0.223800
      3 C1         -0.5190   -0.0070    1.4250 c         1 KDB      0.931600
      4 O1B        -1.7250   -0.1630    1.7220 o         1 KDB     -0.807300
      5 O1A         0.4310    0.2340    2.2180 o         1 KDB     -0.807300
      6 C3         -0.7930   -1.2830   -0.7850 c2        1 KDB     -0.112200
      7 C4         -1.3630   -1.1280   -1.9830 c2        1 KDB     -0.205200
      8 C5         -1.3070    0.1620   -2.7140 c3        1 KDB     -0.056200
      9 C6         -0.2260    1.0700   -2.1330 c3        1 KDB      0.152100
     10 O6         -0.2880    1.1090   -0.7070 os        1 KDB     -0.431600
     11 C7         -0.4200    2.5260   -2.5860 c3        1 KDB      0.109100
     12 O7         -0.3790    2.5430   -4.0080 oh        1 KDB     -0.610800
     13 C8          0.6720    3.4200   -1.9940 c3        1 KDB      0.086400
     14 O8          0.4350    4.7770   -2.3370 oh        1 KDB     -0.625800
     15 HO2         1.7120    0.0090    0.5960 ho        1 KDB      0.434000
     16 H3         -0.8330   -2.2210   -0.2160 ha        1 KDB      0.132000
     17 H4         -1.9230   -1.9370   -2.4730 ha        1 KDB      0.103000
     18 H5         -1.0900   -0.0020   -3.8010 hc        1 KDB      0.044200
     19 H5A        -2.3060    0.6690   -2.6400 hc        1 KDB      0.044200
     20 H6          0.7900    0.7040   -2.4480 h1        1 KDB      0.052700
     21 H7         -1.4300    2.8940   -2.2510 h1        1 KDB      0.041700
     22 HO7        -0.2050    3.4600   -4.2590 ho        1 KDB      0.401000
     23 H8          1.6690    3.1810   -2.4500 h1        1 KDB      0.075200
     24 H8A         0.7140    3.2800   -0.8820 h1        1 KDB      0.075200
     25 HO8        -0.3400    5.0590   -1.8380 ho        1 KDB      0.397000
@<TRIPOS>BOND
     1    1    2 1   
     2    1   15 1   
     3    2    3 1   
     4    2    6 1   
     5    2   10 1   
     6    3    4 1   
     7    3    5 1   
     8    6    7 2   
     9    6   16 1   
    10    7    8 1   
    11    7   17 1   
    12    8    9 1   
    13    8   18 1   
    14    8   19 1   
    15    9   10 1   
    16    9   11 1   
    17    9   20 1   
    18   11   12 1   
    19   11   13 1   
    20   11   21 1   
    21   12   22 1   
    22   13   14 1   
    23   13   23 1   
    24   13   24 1   
    25   14   25 1   
@<TRIPOS>SUBSTRUCTURE
     1 KDB         1 TEMP              0 ****  ****    0 ROOT
