@<TRIPOS>MOLECULE
KDD
   25    24     1     0     0
SMALL
bcc


@<TRIPOS>ATOM
      1 O1A         0.8940    0.3340    0.4550 o         1 KDD     -0.501000
      2 C1          1.8320    1.0150   -0.0140 c2        1 KDD      0.376000
      3 O1B         2.2160    2.1610    0.3020 o         1 KDD     -0.501000
      4 C2          2.6270    0.3380   -1.1890 c2        1 KDD      0.164000
      5 O6          3.8660    0.0250   -0.7690 os        1 KDD     -0.148000
      6 C6          4.7370   -0.7230   -1.5860 cx        1 KDD     -0.119000
      7 C7          6.0950   -0.0940   -1.8370 cx        1 KDD     -0.050500
      8 C8          5.9610   -1.2440   -0.8520 cx        1 KDD     -0.050500
      9 O8          6.1490   -1.0180    0.5040 oh        1 KDD     -0.290500
     10 O7          6.7630   -0.2830   -3.0430 oh        1 KDD     -0.290500
     11 C5          3.7020    0.1400   -4.3150 c3        1 KDD     -0.193000
     12 C3          2.0160    0.0530   -2.4010 c2        1 KDD     -0.342000
     13 C4          2.4470   -0.1790   -3.6720 c1        1 KDD     -0.270000
     14 H6          4.1300   -0.7920   -4.7690 hc        1 KDD      0.066000
     15 H7          4.2270   -1.3420   -2.3480 h1        1 KDD      0.152000
     16 H8          6.3100    0.9290   -1.4680 h1        1 KDD      0.152000
     17 H8A         6.3570   -2.2490   -1.0950 h1        1 KDD      0.152000
     18 HO8         5.5850   -0.2720    0.7620 ho        1 KDD      0.216000
     19 HO7         6.2890   -0.9650   -3.5380 ho        1 KDD      0.216000
     20 H5          4.4940    0.6190   -3.6790 hc        1 KDD      0.066000
     21 H5A         3.4710    0.8490   -5.1550 hc        1 KDD      0.066000
     22 H3          0.9050    0.0610   -2.2940 ha        1 KDD      0.161000
     23 O61         0.3090   -1.3300   -5.1960 oh        1 KDD     -0.463000
     24 H4          1.1730   -0.9410   -4.9410 ho        1 KDD      0.215000
     25 H12        -0.1900   -1.2700   -4.3800 ho        1 KDD      0.215000
@<TRIPOS>BOND
     1    1    2 1   
     2    2    3 1   
     3    2    4 1   
     4    4    5 1   
     5    4   12 1   
     6    5    6 1   
     7    6    7 1   
     8    6    8 1   
     9    6   15 1   
    10    7    8 1   
    11    7   10 1   
    12    7   16 1   
    13    8    9 1   
    14    8   17 1   
    15    9   18 1   
    16   10   19 1   
    17   11   13 1   
    18   11   14 1   
    19   11   20 1   
    20   11   21 1   
    21   12   13 1   
    22   12   22 1   
    23   23   24 1   
    24   23   25 1   
@<TRIPOS>SUBSTRUCTURE
     1 KDD         1 TEMP              0 ****  ****    0 ROOT
