@<TRIPOS>MOLECULE
molecule
   25    25     1     0     0
SMALL
bcc


@<TRIPOS>ATOM
      1 O1A          0.0000     0.0000     0.0000 o          1 KDD      -0.819300
      2 C1           1.2150     0.0000     0.0000 c          1 KDD       0.891800
      3 O1B          1.8890     0.0000     1.1670 o          1 KDD      -0.819300
      4 C2           1.9520    -0.0080    -1.2760 ce         1 KDD       0.092900
      5 O6           3.3070    -0.0080    -1.2400 os         1 KDD      -0.306900
      6 C6           4.0010    -0.3780    -2.4350 c3         1 KDD       0.141100
      7 C7           5.4830    -0.0250    -2.3000 c3         1 KDD       0.157100
      8 C8           6.0820    -0.7790    -1.1120 c3         1 KDD       0.113400
      9 O8           7.4350    -0.3620    -0.9150 oh         1 KDD      -0.632800
     10 O7           6.1720    -0.3970    -3.4960 oh         1 KDD      -0.608800
     11 C5           3.3880     0.3990    -3.6080 c3         1 KDD      -0.116400
     12 C3           1.2600    -0.0190    -2.4050 c2         1 KDD      -0.351200
     13 C4           1.9250    -0.0290    -3.7550 c3         1 KDD       0.196300
     14 H6           3.8880    -1.4420    -2.6060 h1         1 KDD       0.069700
     15 H7           5.5870     1.0410    -2.1400 h1         1 KDD       0.046700
     16 H8           6.0580    -1.8440    -1.3110 h1         1 KDD       0.050700
     17 H8A          5.5050    -0.5660    -0.2200 h1         1 KDD       0.050700
     18 HO8          7.7800    -0.7710    -0.1390 ho         1 KDD       0.397000
     19 HO7          6.8270     0.2510    -3.6960 ho         1 KDD       0.400000
     20 H5           3.4380     1.4620    -3.4070 hc         1 KDD       0.049700
     21 H5A          3.9280     0.1680    -4.5190 hc         1 KDD       0.049700
     22 H3           0.1780    -0.0200    -2.3550 ha         1 KDD       0.158000
     23 O61          1.8670    -1.3490    -4.2990 oh         1 KDD      -0.609800
     24 H4           1.4120     0.6620    -4.4140 h1         1 KDD       0.017700
     25 H12          1.2490    -1.3690    -5.0120 ho         1 KDD       0.383000
@<TRIPOS>BOND
     1     1     2 1
     2     2     3 1
     3     4     2 1
     4     4     5 1
     5     6     5 1
     6     6     7 1
     7     6    14 1
     8     7     8 1
     9     7    15 1
    10     8     9 1
    11     8    16 1
    12     8    17 1
    13     9    18 1
    14    10     7 1
    15    10    19 1
    16    11     6 1
    17    11    20 1
    18    11    21 1
    19    12     4 2
    20    12    22 1
    21    13    11 1
    22    13    12 1
    23    13    23 1
    24    13    24 1
    25    23    25 1
@<TRIPOS>SUBSTRUCTURE
     1 KDD         1 TEMP              0 ****  ****    0 ROOT
