@<TRIPOS>MOLECULE
KDE
   36    36     1     0     0
SMALL
bcc


@<TRIPOS>ATOM
      1 O1A         0.9390    1.5280   -0.1790 o         1 KDE     -0.801300
      2 C1          1.5110    0.4260    0.0030 c         1 KDE      0.932600
      3 O1B         1.6240   -0.5120   -0.8230 o         1 KDE     -0.801300
      4 C2          2.1610    0.1830    1.4270 c3        1 KDE      0.203600
      5 O2          1.2450    0.1560    2.5100 os        1 KDE     -0.464600
      6 C9          0.1710    1.0950    2.4100 c3        1 KDE      0.157600
      7 C10        -0.5010    1.1360    3.7380 c2        1 KDE     -0.144200
      8 C11        -1.4900    1.9780    4.0250 c2        1 KDE     -0.262000
      9 C3          2.9590   -1.1200    1.4860 c3        1 KDE     -0.110400
     10 C4          3.8130   -1.2110    2.7410 c3        1 KDE      0.115100
     11 O4          4.6580   -2.3490    2.7090 oh        1 KDE     -0.610800
     12 C5          4.6590    0.0660    2.9230 c3        1 KDE      0.093100
     13 O5          5.6810    0.0990    1.9430 oh        1 KDE     -0.610800
     14 C6          3.7320    1.2860    2.8810 c3        1 KDE      0.072100
     15 O6          2.9860    1.3190    1.6690 os        1 KDE     -0.446600
     16 C7          4.4970    2.6210    2.9070 c3        1 KDE      0.115100
     17 O7          5.2190    2.8180    1.7060 oh        1 KDE     -0.600800
     18 C8          3.5270    3.7860    3.1430 c3        1 KDE      0.112400
     19 O8          2.8370    4.1480    1.9680 oh        1 KDE     -0.616800
     20 H9         -0.5370    0.7510    1.6070 h1        1 KDE      0.070200
     21 H9A         0.5750    2.1020    2.1140 h1        1 KDE      0.070200
     22 H10        -0.1260    0.4070    4.4760 ha        1 KDE      0.122000
     23 H11        -1.8730    2.7090    3.3020 ha        1 KDE      0.102500
     24 H11A       -1.9840    1.9900    5.0050 ha        1 KDE      0.102500
     25 H3          3.6050   -1.1580    0.5700 hc        1 KDE      0.076200
     26 H3A         2.2460   -1.9800    1.4380 hc        1 KDE      0.076200
     27 H4          3.1610   -1.3620    3.6460 h1        1 KDE      0.074700
     28 HO4         5.3000   -2.1950    2.0030 ho        1 KDE      0.408000
     29 H5          5.2060    0.0230    3.9050 h1        1 KDE      0.059700
     30 HO5         5.3290    0.5780    1.1790 ho        1 KDE      0.427000
     31 H6          3.0260    1.2270    3.7550 h1        1 KDE      0.057700
     32 H7          5.2790    2.5860    3.7130 h1        1 KDE      0.068700
     33 HO7         4.5640    2.9180    0.9980 ho        1 KDE      0.430000
     34 H8          4.1010    4.7080    3.4280 h1        1 KDE      0.036700
     35 H8A         2.8030    3.5230    3.9590 h1        1 KDE      0.036700
     36 HO8         2.3700    3.3630    1.6320 ho        1 KDE      0.448000
@<TRIPOS>BOND
     1    1    2 1   
     2    2    3 1   
     3    2    4 1   
     4    4    5 1   
     5    4    9 1   
     6    4   15 1   
     7    5    6 1   
     8    6    7 1   
     9    6   20 1   
    10    6   21 1   
    11    7    8 2   
    12    7   22 1   
    13    8   23 1   
    14    8   24 1   
    15    9   10 1   
    16    9   25 1   
    17    9   26 1   
    18   10   11 1   
    19   10   12 1   
    20   10   27 1   
    21   11   28 1   
    22   12   13 1   
    23   12   14 1   
    24   12   29 1   
    25   13   30 1   
    26   14   15 1   
    27   14   16 1   
    28   14   31 1   
    29   16   17 1   
    30   16   18 1   
    31   16   32 1   
    32   17   33 1   
    33   18   19 1   
    34   18   34 1   
    35   18   35 1   
    36   19   36 1   
@<TRIPOS>SUBSTRUCTURE
     1 KDE         1 TEMP              0 ****  ****    0 ROOT
