@<TRIPOS>MOLECULE
molecule
   36    36     1     0     0
SMALL
bcc


@<TRIPOS>ATOM
      1 O1A          0.0000     0.0000     0.0000 o          1 KDE      -0.816300
      2 C1           1.2080     0.0000     0.0000 c          1 KDE       0.895600
      3 O1B          1.8790     0.0060    -1.1630 o          1 KDE      -0.816300
      4 C2           1.9630     0.0000     1.3040 c3         1 KDE       0.235600
      5 O2           1.0360    -0.0590     2.3910 os         1 KDE      -0.459600
      6 C9           0.2140     1.1020     2.5170 c3         1 KDE       0.160600
      7 C10         -0.6250     0.9890     3.7650 c2         1 KDE      -0.129200
      8 C11         -0.7440     2.0170     4.5690 c2         1 KDE      -0.272000
      9 C3           2.8910    -1.2160     1.3580 c3         1 KDE      -0.074400
     10 C4           3.6980    -1.1760     2.6600 c3         1 KDE       0.112100
     11 O4           4.6190    -2.2670     2.6840 oh         1 KDE      -0.612800
     12 C5           4.4670     0.1470     2.7300 c3         1 KDE       0.124100
     13 O5           5.4010     0.2140     1.6500 oh         1 KDE      -0.543800
     14 C6           3.4780     1.3100     2.6240 c3         1 KDE       0.146100
     15 O6           2.7390     1.1960     1.4060 os         1 KDE      -0.382600
     16 C7           4.2440     2.6340     2.6340 c3         1 KDE       0.167100
     17 O7           5.2250     2.6240     1.5940 oh         1 KDE      -0.551800
     18 C8           3.2680     3.7900     2.4030 c3         1 KDE       0.105400
     19 O8           3.9640     5.0320     2.5260 oh         1 KDE      -0.632800
     20 H9           0.8410     1.9830     2.5820 h1         1 KDE       0.058200
     21 H9A         -0.4340     1.1820     1.6530 h1         1 KDE       0.058200
     22 H10         -1.1300     0.0590     3.9960 ha         1 KDE       0.124000
     23 H11         -1.3470     1.9360     5.4660 ha         1 KDE       0.099500
     24 H11A        -0.2400     2.9470     4.3380 ha         1 KDE       0.099500
     25 H3           3.5680    -1.1900     0.5130 hc         1 KDE       0.082200
     26 H3A          2.3000    -2.1230     1.3280 hc         1 KDE       0.082200
     27 H4           3.0230    -1.2460     3.5040 h1         1 KDE       0.035700
     28 HO4          4.3810    -2.8640     3.3730 ho         1 KDE       0.385000
     29 H5           4.9940     0.2070     3.6750 h1         1 KDE       0.006700
     30 HO5          6.2450    -0.0850     1.9460 ho         1 KDE       0.380000
     31 H6           2.7940     1.2780     3.4630 h1         1 KDE       0.044700
     32 H7           4.7340     2.7610     3.5910 h1         1 KDE       0.019700
     33 HO7          5.9180     3.2250     1.8100 ho         1 KDE       0.383000
     34 H8           2.8440     3.7110     1.4090 h1         1 KDE       0.045200
     35 H8A          2.4750     3.7450     3.1390 h1         1 KDE       0.045200
     36 HO8          3.3450     5.7430     2.4940 ho         1 KDE       0.396000
@<TRIPOS>BOND
     1     1     2 1
     2     2     3 1
     3     2     4 1
     4     4     5 1
     5     4     9 1
     6     4    15 1
     7     5     6 1
     8     6     7 1
     9     6    20 1
    10     6    21 1
    11     7     8 2
    12     7    22 1
    13     8    23 1
    14     8    24 1
    15     9    10 1
    16     9    25 1
    17     9    26 1
    18    10    11 1
    19    10    12 1
    20    10    27 1
    21    11    28 1
    22    12    13 1
    23    12    14 1
    24    12    29 1
    25    13    30 1
    26    14    15 1
    27    14    16 1
    28    14    31 1
    29    16    17 1
    30    16    18 1
    31    16    32 1
    32    17    33 1
    33    18    19 1
    34    18    34 1
    35    18    35 1
    36    19    36 1
@<TRIPOS>SUBSTRUCTURE
     1 KDE         1 TEMP              0 ****  ****    0 ROOT
