@<TRIPOS>MOLECULE
KDF
   21    21     1     0     0
SMALL
bcc


@<TRIPOS>ATOM
      1 O1B         0.2250   -0.5830   -0.0720 oh        1 KDF     -0.621800
      2 C1          1.6090   -0.2960   -0.0410 c3        1 KDF      0.126400
      3 C2          2.0290    0.2620    1.3190 c3        1 KDF      0.071100
      4 O2          1.5810   -0.6440    2.3300 os        1 KDF     -0.439600
      5 C3          3.5650    0.3850    1.4310 c3        1 KDF      0.123100
      6 O3          3.9260    1.6120    2.0410 oh        1 KDF     -0.619800
      7 C4          3.9750   -0.8180    2.2850 c3        1 KDF     -0.129400
      8 O5          2.6660   -0.4940    4.2610 oh        1 KDF     -0.648800
      9 C6          2.4850   -2.7420    3.2340 c         1 KDF      0.924600
     10 O6A         2.8160   -3.5010    2.2910 o         1 KDF     -0.812800
     11 C5          2.7000   -1.2030    3.0450 c3        1 KDF      0.196600
     12 O6B         2.0160   -3.0860    4.3520 o         1 KDF     -0.812800
     13 H1B         0.0420   -1.1400    0.6990 ho        1 KDF      0.429000
     14 H1C1        1.7710    0.4690   -0.8440 h1        1 KDF      0.040200
     15 H1C2        2.1930   -1.2270   -0.2690 h1        1 KDF      0.040200
     16 H2          1.5230    1.2440    1.5160 h1        1 KDF      0.058700
     17 H3          4.0630    0.4050    0.4290 h1        1 KDF      0.066700
     18 HA          3.5930    1.5730    2.9490 ho        1 KDF      0.418000
     19 H4C1        4.2800   -1.6820    1.6440 hc        1 KDF      0.077200
     20 H4C2        4.8000   -0.5590    2.9880 hc        1 KDF      0.077200
     21 H5          2.1280   -1.0240    4.8720 ho        1 KDF      0.437000
@<TRIPOS>BOND
     1    1    2 1   
     2    1   13 1   
     3    2    3 1   
     4    2   14 1   
     5    2   15 1   
     6    3    4 1   
     7    3    5 1   
     8    3   16 1   
     9    4   11 1   
    10    5    6 1   
    11    5    7 1   
    12    5   17 1   
    13    6   18 1   
    14    7   11 1   
    15    7   19 1   
    16    7   20 1   
    17    8   11 1   
    18    8   21 1   
    19    9   10 1   
    20    9   11 1   
    21    9   12 1   
@<TRIPOS>SUBSTRUCTURE
     1 KDF         1 TEMP              0 ****  ****    0 ROOT
