@<TRIPOS>MOLECULE
molecule
   21    21     1     0     0
SMALL
bcc


@<TRIPOS>ATOM
      1 O1B          0.0000     0.0000     0.0000 oh         1 KDF      -0.596800
      2 C1           1.4290     0.0000     0.0000 c3         1 KDF       0.146400
      3 C2           1.9390     0.0000     1.4420 c3         1 KDF       0.138100
      4 O2           1.5990    -1.2380     2.1030 os         1 KDF      -0.350600
      5 C3           3.4890     0.0130     1.4730 c3         1 KDF       0.109100
      6 O3           3.9880     1.3500     1.4000 oh         1 KDF      -0.615800
      7 C4           3.7910    -0.6150     2.8550 c3         1 KDF      -0.140400
      8 O5           1.9180    -0.8370     4.3910 oh         1 KDF      -0.637800
      9 C6           2.8220    -2.8440     3.4210 c          1 KDF       0.884600
     10 O6A          3.4650    -3.5360     2.4680 o          1 KDF      -0.827800
     11 C5           2.5040    -1.3860     3.2100 c3         1 KDF       0.239600
     12 O6B          2.4970    -3.3900     4.4480 o          1 KDF      -0.827800
     13 H1B         -0.3140     0.0320    -0.8880 ho         1 KDF       0.382000
     14 H1C1         1.7900    -0.8840    -0.5110 h1         1 KDF       0.021700
     15 H1C2         1.7900     0.8840    -0.5110 h1         1 KDF       0.021700
     16 H2           1.5420     0.8440     1.9930 h1         1 KDF       0.065700
     17 H3           3.8930    -0.6010     0.6770 h1         1 KDF       0.051700
     18 HA           4.8050     1.3550     0.9300 ho         1 KDF       0.389000
     19 H4C1         4.6310    -1.2950     2.7850 hc         1 KDF       0.063200
     20 H4C2         3.9810     0.1590     3.5880 hc         1 KDF       0.063200
     21 H5           2.3640    -1.1750     5.1500 ho         1 KDF       0.422000
@<TRIPOS>BOND
     1     1     2 1
     2     2     3 1
     3     3     4 1
     4     3     5 1
     5     4    11 1
     6     5     6 1
     7     5     7 1
     8     7    11 1
     9     8    11 1
    10     9    12 1
    11     9    10 1
    12     9    11 1
    13     1    13 1
    14     2    14 1
    15     2    15 1
    16     3    16 1
    17     5    17 1
    18     6    18 1
    19     7    19 1
    20     7    20 1
    21     8    21 1
@<TRIPOS>SUBSTRUCTURE
     1 KDF         1 TEMP              0 ****  ****    0 ROOT
