@<TRIPOS>MOLECULE
molecule
   21    20     1     0     0
SMALL
bcc


@<TRIPOS>ATOM
      1 O1B          0.0000     0.0000     0.0000 oh         1 KDG      -0.618800
      2 C1           1.4280     0.0000     0.0000 c3         1 KDG       0.112400
      3 C2           1.9390     0.0000     1.4420 c3         1 KDG       0.137100
      4 O2           1.4640    -1.1650     2.1160 oh         1 KDG      -0.598800
      5 C3           3.4700    -0.0000     1.4410 c3         1 KDG       0.153100
      6 O3           3.9450     1.1660     0.7670 oh         1 KDG      -0.605800
      7 C4           3.9800    -0.0000     2.8820 c3         1 KDG      -0.193400
      8 O5           6.0890     0.0000     1.8360 o          1 KDG      -0.560100
      9 C5           5.4860     0.0000     2.8820 c          1 KDG       0.484100
     10 C6           6.2330     0.0000     4.1720 c          1 KDG       0.807600
     11 O6A          7.5790    -0.0000     4.1710 o          1 KDG      -0.814800
     12 O6B          5.6280     0.0010     5.2220 o          1 KDG      -0.814800
     13 H1B         -0.3140     0.0670    -0.8860 ho         1 KDG       0.392000
     14 H1C1         1.7890    -0.8840    -0.5110 h1         1 KDG       0.029200
     15 H1C2         1.7890     0.8840    -0.5110 h1         1 KDG       0.029200
     16 H2           1.5790     0.8850     1.9520 h1         1 KDG       0.049700
     17 HA           0.6990    -0.9460     2.6220 ho         1 KDG       0.405000
     18 H3           3.8300    -0.8850     0.9300 h1         1 KDG       0.046700
     19 HB           4.4650     0.9090     0.0230 ho         1 KDG       0.408000
     20 H4C1         3.6180     0.8840     3.3930 hc         1 KDG       0.076700
     21 H4C2         3.6190    -0.8850     3.3930 hc         1 KDG       0.076700
@<TRIPOS>BOND
     1     1     2 1
     2     1    13 1
     3     2     3 1
     4     2    14 1
     5     2    15 1
     6     3     4 1
     7     3     5 1
     8     3    16 1
     9     4    17 1
    10     5     6 1
    11     5     7 1
    12     5    18 1
    13     6    19 1
    14     7     9 1
    15     7    20 1
    16     7    21 1
    17     8     9 2
    18     9    10 1
    19    10    11 1
    20    10    12 1
@<TRIPOS>SUBSTRUCTURE
     1 KDG         1 TEMP              0 ****  ****    0 ROOT
