@<TRIPOS>MOLECULE
KDG
   21    20     1     0     0
SMALL
bcc


@<TRIPOS>ATOM
      1 O1B        -0.0430    0.2720    0.1900 oh        1 KDG     -0.624800
      2 C1          1.3550    0.0430    0.0490 c3        1 KDG      0.093400
      3 C2          1.9510    0.0810    1.4590 c3        1 KDG      0.144100
      4 O2          1.3780   -0.9380    2.2660 oh        1 KDG     -0.597800
      5 C3          3.4670   -0.1890    1.4130 c3        1 KDG      0.161100
      6 O3          3.9780    0.6100    0.3510 oh        1 KDG     -0.641800
      7 C4          4.1120    0.1500    2.7480 c3        1 KDG     -0.231400
      8 O5          6.2250   -0.4400    1.7880 o         1 KDG     -0.613100
      9 C5          5.5880   -0.1470    2.8090 c         1 KDG      0.473100
     10 C6          6.1990   -0.0130    4.2150 c         1 KDG      0.859600
     11 O6A         6.5710    1.1400    4.5580 o         1 KDG     -0.808800
     12 O6B         6.2440   -1.0520    4.9230 o         1 KDG     -0.808800
     13 H1B        -0.4100    0.2670   -0.7000 ho        1 KDG      0.395000
     14 H1C1        1.8220    0.8430   -0.5830 h1        1 KDG      0.043700
     15 H1C2        1.5300   -0.9610   -0.4180 h1        1 KDG      0.043700
     16 H2          1.7500    1.0860    1.9220 h1        1 KDG      0.048700
     17 HA          0.4240   -0.7890    2.2460 ho        1 KDG      0.407000
     18 H3          3.6460   -1.2750    1.1720 h1        1 KDG      0.051700
     19 HB          4.9430    0.5330    0.3940 ho        1 KDG      0.439000
     20 H4C1        3.9830    1.2410    2.9760 hc        1 KDG      0.083700
     21 H4C2        3.5990   -0.4390    3.5550 hc        1 KDG      0.083700
@<TRIPOS>BOND
     1    1    2 1   
     2    1   13 1   
     3    2    3 1   
     4    2   14 1   
     5    2   15 1   
     6    3    4 1   
     7    3    5 1   
     8    3   16 1   
     9    4   17 1   
    10    5    6 1   
    11    5    7 1   
    12    5   18 1   
    13    6   19 1   
    14    7    9 1   
    15    7   20 1   
    16    7   21 1   
    17    8    9 2   
    18    9   10 1   
    19   10   11 1   
    20   10   12 1   
@<TRIPOS>SUBSTRUCTURE
     1 KDG         1 TEMP              0 ****  ****    0 ROOT
