@<TRIPOS>MOLECULE
KDH
   51    54     1     0     0
SMALL
bcc


@<TRIPOS>ATOM
      1 O1          0.0680    1.3000    0.2070 oh        1 KDH     -0.264000
      2 C3          1.2740    0.6550    0.0360 ca        1 KDH      0.045500
      3 C6          1.7890   -0.0680    1.1280 ca        1 KDH      0.051000
      4 O7          1.1350   -0.1840    2.3270 oh        1 KDH     -0.226000
      5 C9          3.0370   -0.7160    0.9770 ca        1 KDH      0.045500
      6 O10         3.5010   -1.4230    2.0630 oh        1 KDH     -0.264000
      7 C12         3.7550   -0.6080   -0.2190 ca        1 KDH     -0.171000
      8 C14         3.2250    0.1210   -1.2880 ca        1 KDH     -0.067000
      9 C15         4.0210    0.3030   -2.5430 c3        1 KDH      0.075000
     10 C20         3.7870   -0.0770   -4.8730 ca        1 KDH      0.157000
     11 C21         3.2980   -0.9440   -5.8600 ca        1 KDH     -0.275000
     12 C24         3.7770   -0.8000   -7.1680 ca        1 KDH      0.139000
     13 C26         4.7350    0.1680   -7.4980 ca        1 KDH     -0.217000
     14 C29         5.1990    1.0180   -6.4850 ca        1 KDH      0.146000
     15 C31         4.7290    0.9250   -5.1600 ca        1 KDH     -0.255000
     16 C33         4.3740    1.7750   -2.8280 c3        1 KDH      0.012000
     17 C38         1.5890    4.2630   -2.4750 c3        1 KDH     -0.099000
     18 C39         1.4850    4.8880   -3.8190 c2        1 KDH     -0.154000
     19 C41         0.5190    3.3410   -2.0720 c1        1 KDH     -0.164000
     20 C01         5.1930    1.8680   -4.1120 c3        1 KDH     -0.120000
     21 O01         3.2490   -0.2680   -3.6150 os        1 KDH     -0.187000
     22 O02         3.3460   -1.6040   -8.1960 oh        1 KDH     -0.245000
     23 O03         6.1360    1.9410   -6.8860 oh        1 KDH     -0.246000
     24 C4          1.9680    0.7100   -1.1760 ca        1 KDH     -0.171000
     25 O35         3.1560    2.5200   -3.0230 os        1 KDH     -0.251000
     26 O37         3.8580    4.0830   -1.5630 o         1 KDH     -0.337000
     27 C43        -0.5940    3.2000   -2.9060 c2        1 KDH     -0.109000
     28 O44        -1.6670    2.3950   -2.5600 oh        1 KDH     -0.283000
     29 C46        -0.6980    3.8380   -4.1390 c2        1 KDH      0.156000
     30 O47        -1.7460    3.7120   -4.9890 oh        1 KDH     -0.236000
     31 C49         0.3790    4.7070   -4.5880 c2        1 KDH      0.042000
     32 O50         0.2920    5.3730   -5.7890 oh        1 KDH     -0.239000
     33 HO1         0.1170    2.1230   -0.3280 ho        1 KDH      0.238000
     34 H21         2.5560   -1.7090   -5.5980 ha        1 KDH      0.155000
     35 H33         4.9540    2.1930   -1.9590 h1        1 KDH      0.140000
     36 H4          1.5260    1.2460   -2.0330 ha        1 KDH      0.151000
     37 HO7         0.3490    0.3860    2.2810 ho        1 KDH      0.232000
     38 H01         6.2680    1.6570   -3.8590 hc        1 KDH      0.098000
     39 H01A        5.1300    2.9240   -4.4940 hc        1 KDH      0.098000
     40 HO03        6.4210    2.4500   -6.1140 ho        1 KDH      0.221000
     41 HO10        4.3470   -1.8210    1.8110 ho        1 KDH      0.238000
     42 H12         4.7350   -1.0990   -0.3100 ha        1 KDH      0.151000
     43 H15         4.9960   -0.2630   -2.4800 h1        1 KDH      0.103000
     44 H26         5.1120    0.2620   -8.5250 ha        1 KDH      0.170000
     45 H39         2.3150    5.5220   -4.1650 ha        1 KDH      0.169000
     46 H41         1.5150    5.1100   -1.7050 hc        1 KDH      0.201000
     47 HO02        2.7000   -2.2300   -7.8360 ho        1 KDH      0.223000
     48 HO44       -1.3980    1.8760   -1.7840 ho        1 KDH      0.255000
     49 HO47       -2.3860    3.0810   -4.6080 ho        1 KDH      0.275000
     50 HO50       -0.4630    5.0180   -6.2830 ho        1 KDH      0.241000
     51 C36         2.9580    3.6470   -2.2790 c2        1 KDH      0.354000
@<TRIPOS>BOND
     1    1    2 1   
     2    1   33 1   
     3    2    3 1   
     4    2   24 1   
     5    3    4 1   
     6    3    5 1   
     7    4   37 1   
     8    5    6 1   
     9    5    7 1   
    10    6   41 1   
    11    7    8 1   
    12    7   42 1   
    13    8    9 1   
    14    8   24 1   
    15    9   16 1   
    16    9   21 1   
    17    9   43 1   
    18   10   11 1   
    19   10   15 1   
    20   10   21 1   
    21   11   12 1   
    22   11   34 1   
    23   12   13 1   
    24   12   22 1   
    25   13   14 1   
    26   13   44 1   
    27   14   15 1   
    28   14   23 1   
    29   15   20 1   
    30   16   20 1   
    31   16   25 1   
    32   16   35 1   
    33   17   18 1   
    34   17   19 1   
    35   17   46 1   
    36   17   51 1   
    37   18   31 1   
    38   18   45 1   
    39   19   27 1   
    40   20   38 1   
    41   20   39 1   
    42   22   47 1   
    43   23   40 1   
    44   24   36 1   
    45   25   51 1   
    46   26   51 1   
    47   27   28 1   
    48   27   29 1   
    49   28   48 1   
    50   29   30 1   
    51   29   31 1   
    52   30   49 1   
    53   31   32 1   
    54   32   50 1   
@<TRIPOS>SUBSTRUCTURE
     1 KDH         1 TEMP              0 ****  ****    0 ROOT
