@<TRIPOS>MOLECULE
molecule
   51    54     1     0     0
SMALL
bcc


@<TRIPOS>ATOM
      1 O1           0.0000     0.0000     0.0000 oh         1 KDH      -0.508600
      2 C3           1.3610     0.0000     0.0000 ca         1 KDH       0.091600
      3 C6           2.0560     0.0000     1.2030 ca         1 KDH       0.078100
      4 O7           1.3790     0.0010     2.3840 oh         1 KDH      -0.499100
      5 C9           3.4460    -0.0000     1.1970 ca         1 KDH       0.091600
      6 O10          4.1320    -0.0010     2.3720 oh         1 KDH      -0.508600
      7 C12          4.1320    -0.0020    -0.0080 ca         1 KDH      -0.134500
      8 C14          3.4370    -0.0020    -1.2030 ca         1 KDH      -0.076300
      9 C15          4.1870    -0.0030    -2.5090 c3         1 KDH       0.205400
     10 C20          3.8620    -0.6770    -4.7760 ca         1 KDH       0.183100
     11 C21          3.4220    -1.6520    -5.6660 ca         1 KDH      -0.200000
     12 C24          3.8040    -1.6050    -6.9960 ca         1 KDH       0.162100
     13 C26          4.6260    -0.5830    -7.4450 ca         1 KDH      -0.253000
     14 C29          5.0650     0.3880    -6.5590 ca         1 KDH       0.169100
     15 C31          4.6860     0.3400    -5.2230 ca         1 KDH      -0.191300
     16 C33          4.3350     1.4360    -3.0210 c3         1 KDH       0.117100
     17 C38          1.5690     3.9400    -3.4780 ca         1 KDH      -0.116600
     18 C39          1.4070     5.3210    -3.3300 ca         1 KDH      -0.101000
     19 C41          0.4970     3.1570    -3.9110 ca         1 KDH      -0.101000
     20 C01          5.1930     1.4080    -4.2870 c3         1 KDH      -0.035100
     21 O01          3.4570    -0.7540    -3.4810 os         1 KDH      -0.314900
     22 O02          3.3720    -2.5600    -7.8610 oh         1 KDH      -0.516100
     23 O03          5.8720     1.3890    -6.9990 oh         1 KDH      -0.505100
     24 C4           2.0540    -0.0060    -1.2000 ca         1 KDH      -0.134500
     25 O35          3.0260     1.9830    -3.3280 os         1 KDH      -0.405900
     26 O37          3.8040     3.9980    -2.8140 o          1 KDH      -0.550000
     27 C43         -0.7220     3.7460    -4.1870 ca         1 KDH       0.078600
     28 O44         -1.7670     2.9830    -4.6070 oh         1 KDH      -0.509100
     29 C46         -0.8840     5.1210    -4.0320 ca         1 KDH       0.100100
     30 O47         -2.0830     5.6980    -4.3040 oh         1 KDH      -0.508100
     31 C49          0.1850     5.9060    -3.6070 ca         1 KDH       0.078600
     32 O50          0.0270     7.2490    -3.4620 oh         1 KDH      -0.509100
     33 HO1         -0.3140    -0.8740    -0.1630 ho         1 KDH       0.423500
     34 H21          2.7800    -2.4510    -5.3160 ha         1 KDH       0.156000
     35 H33          4.8220     2.0410    -2.2660 h1         1 KDH       0.087700
     36 H4           1.5120    -0.0070    -2.1380 ha         1 KDH       0.153500
     37 HO7          1.2850    -0.8840     2.6930 ho         1 KDH       0.423000
     38 H01          5.1150     2.3690    -4.7810 hc         1 KDH       0.076700
     39 H01A         6.2140     1.1730    -4.0110 hc         1 KDH       0.076700
     40 HO03         6.5640     1.0270    -7.5260 ho         1 KDH       0.425000
     41 HO10         4.4630     0.8650     2.5430 ho         1 KDH       0.423500
     42 H12          5.2160    -0.0020    -0.0140 ha         1 KDH       0.153500
     43 H15          5.1670    -0.4420    -2.3720 h1         1 KDH       0.070700
     44 H26          4.9260    -0.5440    -8.4850 ha         1 KDH       0.147000
     45 H39          2.2380     5.9320    -2.9990 ha         1 KDH       0.167000
     46 H41          0.6380     2.0970    -4.0880 ha         1 KDH       0.167000
     47 HO02         4.0180    -3.2450    -7.9220 ho         1 KDH       0.423000
     48 HO44        -2.2210     2.6320    -3.8590 ho         1 KDH       0.428000
     49 HO47        -2.1040     5.9690    -5.2070 ho         1 KDH       0.437000
     50 HO50        -0.0550     7.4590    -2.5470 ho         1 KDH       0.428000
     51 C36          2.8710     3.3130    -3.1840 c          1 KDH       0.654700
@<TRIPOS>BOND
     1     1     2 1
     2     1    33 1
     3     2     3 ar
     4     2    24 ar
     5     3     4 1
     6     3     5 ar
     7     4    37 1
     8     5     6 1
     9     5     7 ar
    10     6    41 1
    11     7     8 ar
    12     7    42 1
    13     8     9 1
    14     8    24 ar
    15     9    16 1
    16     9    21 1
    17     9    43 1
    18    10    11 ar
    19    10    15 ar
    20    10    21 1
    21    11    12 ar
    22    11    34 1
    23    12    13 ar
    24    12    22 1
    25    13    14 ar
    26    13    44 1
    27    14    15 ar
    28    14    23 1
    29    15    20 1
    30    16    20 1
    31    16    25 1
    32    16    35 1
    33    51    17 1
    34    51    25 1
    35    51    26 2
    36    17    18 ar
    37    17    19 ar
    38    18    31 ar
    39    18    45 1
    40    19    27 ar
    41    19    46 1
    42    20    38 1
    43    20    39 1
    44    22    47 1
    45    23    40 1
    46    24    36 1
    47    27    28 1
    48    27    29 ar
    49    28    48 1
    50    29    30 1
    51    29    31 ar
    52    30    49 1
    53    31    32 1
    54    32    50 1
@<TRIPOS>SUBSTRUCTURE
     1 KDH         1 TEMP              0 ****  ****    0 ROOT
