@<TRIPOS>MOLECULE
KDI
   59    61     1     0     0
SMALL
bcc


@<TRIPOS>ATOM
      1 C1           0.0000     0.0000     0.0000 c3         1 KDI       0.188100
      2 N2           1.4690     0.0000     0.0000 n3         1 KDI      -0.538600
      3 C3           1.9950     0.0000     1.3720 c3         1 KDI       0.132800
      4 C4           1.9950     1.1320    -0.7730 c3         1 KDI       0.132800
      5 C5           3.5170     0.9950    -0.9010 c3         1 KDI       0.241800
      6 N6           4.0870     0.8430     0.4450 n3         1 KDI      -0.534500
      7 S7           5.3390     1.8010     0.9510 sy         1 KDI       1.053200
      8 O8           5.9980     1.0850     1.9870 o          1 KDI      -0.587300
      9 O9           5.9990     2.2520    -0.2240 o          1 KDI      -0.587300
     10 C10          4.6330     3.2290     1.7050 ca         1 KDI      -0.165500
     11 C11          4.3560     3.2270     3.0600 ca         1 KDI       0.006000
     12 C12          3.8030     4.3420     3.6550 ca         1 KDI      -0.128000
     13 C13          3.5230     5.4720     2.8890 cp         1 KDI      -0.072500
     14 C14          3.8040     5.4680     1.5230 ca         1 KDI      -0.128000
     15 C15          4.3620     4.3490     0.9390 ca         1 KDI       0.006000
     16 C16          2.9290     6.6730     3.5230 cp         1 KDI       0.212500
     17 C17          2.7450     6.7130     4.9090 ca         1 KDI       0.382900
     18 N18          2.2170     7.7780     5.4780 nb         1 KDI      -0.636000
     19 C19          1.8570     8.8210     4.7360 ca         1 KDI       0.454900
     20 C20          2.0400     8.7850     3.3440 ca         1 KDI       0.108500
     21 N21          2.5770     7.7110     2.7760 nb         1 KDI      -0.477000
     22 C22          1.6420     9.9410     2.5140 c          1 KDI       0.507600
     23 O23          1.2500    10.9630     3.0440 o          1 KDI      -0.681100
     24 N24          1.7130     9.8620     1.1710 ns         1 KDI      -0.165900
     25 C25          1.3180    11.0090     0.3480 c3         1 KDI       0.049000
     26 C27          0.8840    12.5860    -4.2650 c3         1 KDI       0.257700
     27 C30          1.4930    10.6590    -1.1320 c3         1 KDI      -0.049400
     28 N31          1.3030     9.9380     5.3330 nv         1 KDI      -0.495500
     29 C6           3.5160    -0.1830     1.3310 c3         1 KDI       0.241800
     30 C28          1.0800    11.8560    -1.9910 c3         1 KDI       0.218400
     31 O29          1.2430    11.5300    -3.3720 os         1 KDI      -0.419600
     32 H11C        -0.3610    -0.0330    -1.0210 h1         1 KDI       0.000367
     33 H12C        -0.3610     0.9000     0.4820 h1         1 KDI       0.000367
     34 H13C        -0.3610    -0.8680     0.5390 h1         1 KDI       0.000367
     35 H31C         1.5490    -0.8150     1.9290 h1         1 KDI       0.012200
     36 H32C         1.7580     0.9430     1.8490 h1         1 KDI       0.012200
     37 H41C         1.5490     1.1320    -1.7600 h1         1 KDI       0.012200
     38 H42C         1.7580     2.0580    -0.2630 h1         1 KDI       0.012200
     39 H61C         3.7530    -1.1680     0.9460 h1         1 KDI       0.028700
     40 H62C         3.9230    -0.0690     2.3280 h1         1 KDI       0.028700
     41 H51C         3.9230     1.8830    -1.3700 h1         1 KDI       0.028700
     42 H52C         3.7540     0.1220    -1.4970 h1         1 KDI       0.028700
     43 H11          4.5740     2.3480     3.6550 ha         1 KDI       0.122000
     44 H15          4.5810     4.3450    -0.1220 ha         1 KDI       0.122000
     45 H12          3.5860     4.3400     4.7160 ha         1 KDI       0.118500
     46 H14          3.5910     6.3440     0.9230 ha         1 KDI       0.118500
     47 H17          3.0370     5.8650     5.5170 h4         1 KDI      -0.006900
     48 H311         1.5680    10.1910     6.2640 hn         1 KDI       0.293800
     49 H312         0.6030    10.4670     4.8510 hn         1 KDI       0.293800
     50 H24          2.0330     9.0200     0.7350 hn         1 KDI       0.192500
     51 H251         1.9410    11.8610     0.5930 h1         1 KDI       0.026700
     52 H252         0.2810    11.2520     0.5420 h1         1 KDI       0.026700
     53 H301         2.5300    10.4160    -1.3260 hc         1 KDI       0.026700
     54 H302         0.8710     9.8060    -1.3770 hc         1 KDI       0.026700
     55 H271         1.0290    12.2590    -5.2870 h1         1 KDI      -0.012300
     56 H272        -0.1560    12.8490    -4.1140 h1         1 KDI      -0.012300
     57 H273         1.5070    13.4510    -4.0700 h1         1 KDI      -0.012300
     58 H281         0.0420    12.0980    -1.7970 h1         1 KDI      -0.007300
     59 H282         1.7010    12.7090    -1.7450 h1         1 KDI      -0.007300
@<TRIPOS>BOND
     1     1     2 1   
     2     1    32 1   
     3     1    33 1   
     4     1    34 1   
     5     2     3 1   
     6     2     4 1   
     7     3    29 1   
     8     3    35 1   
     9     3    36 1   
    10     4     5 1   
    11     4    37 1   
    12     4    38 1   
    13     5     6 1   
    14     5    41 1   
    15     5    42 1   
    16     6     7 1   
    17     6    29 1   
    18     7     8 2   
    19     7     9 2   
    20     7    10 1   
    21    10    11 ar  
    22    10    15 ar  
    23    11    12 ar  
    24    11    43 1   
    25    12    13 ar  
    26    12    45 1   
    27    13    14 ar  
    28    13    16 1   
    29    14    15 ar  
    30    14    46 1   
    31    15    44 1   
    32    16    17 ar  
    33    16    21 ar  
    34    17    18 ar  
    35    17    47 1   
    36    18    19 ar  
    37    19    20 ar  
    38    19    28 1   
    39    20    21 ar  
    40    20    22 1   
    41    22    23 2   
    42    22    24 1   
    43    24    25 1   
    44    24    50 1   
    45    25    27 1   
    46    25    51 1   
    47    25    52 1   
    48    26    31 1   
    49    26    55 1   
    50    26    56 1   
    51    26    57 1   
    52    27    30 1   
    53    27    53 1   
    54    27    54 1   
    55    28    48 1   
    56    28    49 1   
    57    29    39 1   
    58    29    40 1   
    59    30    31 1   
    60    30    58 1   
    61    30    59 1   
@<TRIPOS>SUBSTRUCTURE
     1 KDI         1 TEMP              0 ****  ****    0 ROOT
