@<TRIPOS>MOLECULE
KDN
   33    33     1     0     0
SMALL
bcc


@<TRIPOS>ATOM
      1 C1          0.0430   -0.4810    0.0280 c3        1 KDN      0.201600
      2 C10        -0.4610   -1.0540   -1.3560 c         1 KDN      0.928600
      3 C2          1.5600   -0.3290    0.0620 c3        1 KDN     -0.114400
      4 C3          2.0640   -0.0360    1.4630 c3        1 KDN      0.102100
      5 C4          1.4920   -1.0500    2.4670 c3        1 KDN      0.087100
      6 C5         -0.0400   -1.0770    2.3600 c3        1 KDN      0.118100
      7 C6         -0.6300   -2.2000    3.2330 c3        1 KDN      0.155100
      8 C7         -2.1670   -2.1030    3.2450 c3        1 KDN      0.087100
      9 C9         -2.8080   -2.9600    2.1510 c3        1 KDN      0.080400
     10 O4          1.8260   -0.6830    3.7990 oh        1 KDN     -0.607800
     11 O9          0.2310   -1.9410   -1.9080 o         1 KDN     -0.804800
     12 O8         -1.5210   -0.5280   -1.7860 o         1 KDN     -0.804800
     13 O3          3.4830   -0.0470    1.5440 oh        1 KDN     -0.620800
     14 O5         -0.4360   -1.3790    1.0260 os        1 KDN     -0.444600
     15 O6         -0.1890   -3.4740    2.8040 oh        1 KDN     -0.606800
     16 O7         -2.6040   -2.5030    4.5390 oh        1 KDN     -0.610800
     17 O10        -4.2170   -2.8090    2.1870 oh        1 KDN     -0.619800
     18 O1         -0.5630    0.7490    0.3460 oh        1 KDN     -0.650800
     19 H21C        1.9980   -1.2860   -0.3280 hc        1 KDN      0.072200
     20 H22C        1.8560    0.5010   -0.6270 hc        1 KDN      0.072200
     21 H1         -1.3880    0.7930   -0.1660 ho        1 KDN      0.438000
     22 H3          1.7750    1.0070    1.7780 h1        1 KDN      0.088700
     23 H4          1.9030   -2.0780    2.2580 h1        1 KDN      0.051700
     24 HA          3.7880   -0.8410    1.0890 ho        1 KDN      0.398000
     25 H5         -0.4530   -0.0790    2.6680 h1        1 KDN      0.066700
     26 HB          2.7490   -0.3980    3.7740 ho        1 KDN      0.406000
     27 H6         -0.2370   -2.0970    4.2840 h1        1 KDN      0.099700
     28 H7         -2.4730   -1.0270    3.0990 h1        1 KDN      0.041700
     29 HC         -0.2850   -3.5020    1.8400 ho        1 KDN      0.420000
     30 HD         -3.5190   -2.7960    4.4420 ho        1 KDN      0.405000
     31 H91C       -2.3870   -2.6770    1.1500 h1        1 KDN      0.081200
     32 H92C       -2.6290   -4.0490    2.3560 h1        1 KDN      0.081200
     33 H10        -4.4180   -1.9600    1.7760 ho        1 KDN      0.403000
@<TRIPOS>BOND
     1    1    2 1   
     2    1    3 1   
     3    1   14 1   
     4    1   18 1   
     5    2   11 1   
     6    2   12 1   
     7    3    4 1   
     8    3   19 1   
     9    3   20 1   
    10    4    5 1   
    11    4   13 1   
    12    4   22 1   
    13    5    6 1   
    14    5   10 1   
    15    5   23 1   
    16    6    7 1   
    17    6   14 1   
    18    6   25 1   
    19    7    8 1   
    20    7   15 1   
    21    7   27 1   
    22    8    9 1   
    23    8   16 1   
    24    8   28 1   
    25    9   17 1   
    26    9   31 1   
    27    9   32 1   
    28   10   26 1   
    29   13   24 1   
    30   15   29 1   
    31   16   30 1   
    32   17   33 1   
    33   18   21 1   
@<TRIPOS>SUBSTRUCTURE
     1 KDN         1 TEMP              0 ****  ****    0 ROOT
