@<TRIPOS>MOLECULE
molecule
   33    33     1     0     0
SMALL
bcc


@<TRIPOS>ATOM
      1 C1           0.0000     0.0000     0.0000 c3         1 KDN       0.235600
      2 C10         -0.5030    -0.0590    -1.4190 c          1 KDN       0.876600
      3 C2           1.5310     0.0000     0.0000 c3         1 KDN      -0.100400
      4 C3           2.0340     0.0000     1.4470 c3         1 KDN       0.117100
      5 C4           1.4520    -1.2150     2.1780 c3         1 KDN       0.112100
      6 C5          -0.0750    -1.1670     2.0940 c3         1 KDN       0.149100
      7 C6          -0.6620    -2.4080     2.7700 c3         1 KDN       0.163100
      8 C7          -2.1800    -2.4240     2.5770 c3         1 KDN       0.139100
      9 C9          -2.7670    -3.6650     3.2540 c3         1 KDN       0.103400
     10 O4           1.8560    -1.1860     3.5490 oh         1 KDN      -0.622800
     11 O9          -1.2700    -0.9310    -1.7530 o          1 KDN      -0.813800
     12 O8          -0.0980     0.8570    -2.3130 o          1 KDN      -0.813800
     13 O3           3.4610    -0.0750     1.4570 oh         1 KDN      -0.626800
     14 O5          -0.4750    -1.1380     0.7220 os         1 KDN      -0.384600
     15 O6          -0.0960    -3.5820     2.1850 oh         1 KDN      -0.588800
     16 O7          -2.7460    -1.2500     3.1630 oh         1 KDN      -0.607800
     17 O10         -4.1660    -3.7410     2.9760 oh         1 KDN      -0.611800
     18 O1          -0.4760     1.1940     0.6250 oh         1 KDN      -0.644800
     19 H21C         1.8910     0.8870    -0.5070 hc         1 KDN       0.070700
     20 H22C         1.8910    -0.8860    -0.5080 hc         1 KDN       0.070700
     21 H1          -1.1420     1.5870     0.0860 ho         1 KDN       0.422000
     22 H3           1.7110     0.9080     1.9420 h1         1 KDN       0.052700
     23 H4           1.8100    -2.1230     1.7090 h1         1 KDN       0.059700
     24 HA           3.8200     0.7860     1.5920 ho         1 KDN       0.394000
     25 H5          -0.4350    -0.2750     2.5920 h1         1 KDN       0.076700
     26 HB           2.6370    -1.7040     3.6570 ho         1 KDN       0.396000
     27 H6          -0.4330    -2.3860     3.8290 h1         1 KDN       0.043700
     28 H7          -2.4090    -2.4470     1.5190 h1         1 KDN       0.097700
     29 HC           0.2720    -4.1250     2.8630 ho         1 KDN       0.383000
     30 HD          -3.5910    -1.0830     2.7780 ho         1 KDN       0.415000
     31 H91C        -2.2740    -4.5520     2.8720 h1         1 KDN       0.022700
     32 H92C        -2.6140    -3.6000     4.3240 h1         1 KDN       0.022700
     33 H10         -4.5070    -4.5580     3.3020 ho         1 KDN       0.392000
@<TRIPOS>BOND
     1     1     3 1
     2     1    18 1
     3     1    14 1
     4     1     2 1
     5     3     4 1
     6     4     5 1
     7     4    13 1
     8     5     6 1
     9     5    10 1
    10     6     7 1
    11     6    14 1
    12     7     8 1
    13     7    15 1
    14     8    16 1
    15     8     9 1
    16    12     2 1
    17    11     2 1
    18    17     9 1
    19     3    19 1
    20     3    20 1
    21    18    21 1
    22     4    22 1
    23     5    23 1
    24    13    24 1
    25     6    25 1
    26    10    26 1
    27     7    27 1
    28     8    28 1
    29    15    29 1
    30    16    30 1
    31     9    31 1
    32     9    32 1
    33    17    33 1
@<TRIPOS>SUBSTRUCTURE
     1 KDN         1 TEMP              0 ****  ****    0 ROOT
