@<TRIPOS>MOLECULE
KDP
   24    23     1     0     0
SMALL
bcc


@<TRIPOS>ATOM
      1 OAH         0.8300    1.4190    0.4560 o         1 KDP     -0.936833
      2 PAP         1.7970    0.2820    0.2510 p5        1 KDP      1.320900
      3 OAC         2.8780    0.1320    1.2870 o         1 KDP     -0.936833
      4 OAG         1.1750   -0.9980   -0.2400 o         1 KDP     -0.936833
      5 OAK         2.7140    0.8160   -1.1320 os        1 KDP     -0.577200
      6 CAI         1.9810    1.3690   -2.1520 c3        1 KDP      0.194400
      7 CAN         2.6730    2.6660   -2.6490 c3        1 KDP      0.122100
      8 OAD         4.0860    2.5660   -2.6110 oh        1 KDP     -0.648800
      9 CAO         2.2310    3.0440   -4.0770 c3        1 KDP      0.147100
     10 OAE         2.6420    2.0160   -4.9700 oh        1 KDP     -0.600800
     11 CAJ         2.8040    4.3950   -4.5060 c3        1 KDP     -0.218400
     12 CAM         2.3340    4.8960   -5.8420 c         1 KDP      0.481100
     13 CAL         2.7630    6.3190   -6.2200 c         1 KDP      0.846600
     14 OAA         3.8340    6.4600   -6.8760 o         1 KDP     -0.840800
     15 OAF         2.0230    7.2790   -5.8640 o         1 KDP     -0.840800
     16 OXT         1.6480    4.2000   -6.6090 o         1 KDP     -0.625100
     17 HAI1        0.9380    1.6200   -1.8130 h1        1 KDP      0.009200
     18 HAI2        1.9350    0.6640   -3.0350 h1        1 KDP      0.009200
     19 HAN         2.3870    3.5230   -1.9740 h1        1 KDP      0.026700
     20 HAD         4.2890    1.7960   -2.0540 ho        1 KDP      0.439000
     21 HAO         1.1040    3.1020   -4.0870 h1        1 KDP      0.020700
     22 HAE         2.3070    2.2730   -5.8380 ho        1 KDP      0.390000
     23 HAJ1        3.9230    4.3120   -4.5420 hc        1 KDP      0.078700
     24 HAJ2        2.5430    5.1650   -3.7350 hc        1 KDP      0.078700
@<TRIPOS>BOND
     1    1    2 1   
     2    2    3 1   
     3    2    4 1   
     4    2    5 1   
     5    5    6 1   
     6    6    7 1   
     7    6   17 1   
     8    6   18 1   
     9    7    8 1   
    10    7    9 1   
    11    7   19 1   
    12    8   20 1   
    13    9   10 1   
    14    9   11 1   
    15    9   21 1   
    16   10   22 1   
    17   11   12 1   
    18   11   23 1   
    19   11   24 1   
    20   12   13 1   
    21   12   16 2   
    22   13   14 1   
    23   13   15 1   
@<TRIPOS>SUBSTRUCTURE
     1 KDP         1 TEMP              0 ****  ****    0 ROOT
