@<TRIPOS>MOLECULE
molecule
   24    23     1     0     0
SMALL
bcc


@<TRIPOS>ATOM
      1 OAH          0.0000     0.0000     0.0000 o          1 KDP      -0.923500
      2 PAP          1.6100     0.0000     0.0000 p5         1 KDP       1.203900
      3 OAC          2.1470     0.0000     1.5180 o          1 KDP      -0.923500
      4 OAG          2.1030    -1.2080    -0.6980 o          1 KDP      -0.923500
      5 OAK          2.1460     1.3140    -0.7590 os         1 KDP      -0.590200
      6 CAI          1.9290     1.5530    -2.1510 c3         1 KDP       0.206400
      7 CAN          2.5670     2.8870    -2.5460 c3         1 KDP       0.126100
      8 OAD          3.9850     2.7990    -2.3950 oh         1 KDP      -0.597800
      9 CAO          2.2280     3.2020    -4.0040 c3         1 KDP       0.150100
     10 OAE          2.6290     2.1110    -4.8330 oh         1 KDP      -0.591800
     11 CAJ          2.9670     4.4700    -4.4370 c3         1 KDP      -0.194400
     12 CAM          2.5390     4.8500    -5.8300 c          1 KDP       0.479100
     13 CAL          3.1190     6.0580    -6.4850 c          1 KDP       0.806600
     14 OAA          2.7360     6.3970    -7.7300 o          1 KDP      -0.839800
     15 OAF          3.9340     6.7340    -5.8960 o          1 KDP      -0.839800
     16 OXT          1.7260     4.1770    -6.4180 o          1 KDP      -0.563100
     17 HAI1         0.8640     1.5900    -2.3490 h1         1 KDP       0.021200
     18 HAI2         2.3760     0.7540    -2.7290 h1         1 KDP       0.021200
     19 HAN          2.1840     3.6730    -1.9080 h1         1 KDP       0.021700
     20 HAD          4.2480     3.2660    -1.6190 ho         1 KDP       0.385000
     21 HAO          1.1600     3.3560    -4.1010 h1         1 KDP       0.031700
     22 HAE          1.8780     1.7690    -5.2890 ho         1 KDP       0.391000
     23 HAJ1         4.0350     4.2880    -4.4240 hc         1 KDP       0.070700
     24 HAJ2         2.7300     5.2770    -3.7540 hc         1 KDP       0.070700
@<TRIPOS>BOND
     1     1     2 1
     2     2     3 1
     3     2     4 1
     4     2     5 1
     5     5     6 1
     6     6     7 1
     7     7     8 1
     8     7     9 1
     9     9    10 1
    10     9    11 1
    11    11    12 1
    12    12    13 1
    13    12    16 2
    14    13    14 1
    15    13    15 1
    16     6    17 1
    17     6    18 1
    18     7    19 1
    19     8    20 1
    20     9    21 1
    21    10    22 1
    22    11    23 1
    23    11    24 1
@<TRIPOS>SUBSTRUCTURE
     1 KDP         1 TEMP              0 ****  ****    0 ROOT
