@<TRIPOS>MOLECULE
KDR
   36    36     1     0     0
SMALL
bcc


@<TRIPOS>ATOM
      1 C11         0.0210    0.4510   -0.2250 c2        1 KDR     -0.221000
      2 C10         1.1220   -0.2520    0.0250 c2        1 KDR     -0.163200
      3 C9          1.9360   -0.0570    1.2560 c3        1 KDR      0.154600
      4 O2          2.9710   -1.0500    1.2310 os        1 KDR     -0.431600
      5 C2          3.7750   -1.0970    2.3940 c3        1 KDR      0.241600
      6 C1          4.3830    0.2440    2.8160 c         1 KDR      0.560900
      7 O1A         4.7620    1.0790    2.0020 o         1 KDR     -0.497100
      8 C3          4.9070   -2.0950    2.1250 c3        1 KDR     -0.121400
      9 O6          2.9140   -1.4740    3.4600 os        1 KDR     -0.438600
     10 C6          2.3980   -2.8050    3.3670 c3        1 KDR      0.156100
     11 C7          1.5620   -3.0330    4.6370 c3        1 KDR      0.153100
     12 O7          0.8310   -4.2290    4.4020 oh        1 KDR     -0.607800
     13 C8          0.6100   -1.8580    4.8780 c3        1 KDR      0.096400
     14 O8         -0.1880   -2.2190    5.9950 oh        1 KDR     -0.614800
     15 C5          3.5100   -3.8550    3.2440 c3        1 KDR      0.127100
     16 O5          4.2900   -3.8360    4.4270 oh        1 KDR     -0.594800
     17 C4          4.3680   -3.5150    2.0110 c3        1 KDR      0.107100
     18 O4          5.4280   -4.4600    1.9970 oh        1 KDR     -0.605800
     19 H11        -0.3670    1.2180    0.4580 ha        1 KDR      0.115000
     20 H11A       -0.5670    0.3050   -1.1410 ha        1 KDR      0.115000
     21 H10         1.5020   -1.0180   -0.6710 ha        1 KDR      0.142000
     22 H9          2.4120    0.9620    1.2660 h1        1 KDR      0.051200
     23 H9A         1.3150   -0.1920    2.1830 h1        1 KDR      0.051200
     24 H1          4.4750    0.3750    3.9160 h4        1 KDR      0.030200
     25 H3          5.6290   -2.0470    2.9810 hc        1 KDR      0.077200
     26 H3A         5.4310   -1.7990    1.1810 hc        1 KDR      0.077200
     27 H6          1.7430   -2.8740    2.4530 h1        1 KDR      0.072700
     28 H7          2.2400   -3.1680    5.5240 h1        1 KDR      0.080700
     29 HO7         0.2430   -4.3390    5.1610 ho        1 KDR      0.426000
     30 H8         -0.0380   -1.6900    3.9780 h1        1 KDR      0.040700
     31 H8A         1.1990   -0.9290    5.0970 h1        1 KDR      0.040700
     32 HO8        -0.8000   -1.4900    6.1460 ho        1 KDR      0.409000
     33 H5          3.0400   -4.8700    3.1180 h1        1 KDR      0.075700
     34 HO5         5.0140   -4.4620    4.2840 ho        1 KDR      0.421000
     35 H4          3.7460   -3.6180    1.0790 h1        1 KDR      0.063700
     36 HO4         5.9860   -4.2470    1.2400 ho        1 KDR      0.411000
@<TRIPOS>BOND
     1    1    2 2   
     2    1   19 1   
     3    1   20 1   
     4    2    3 1   
     5    2   21 1   
     6    3    4 1   
     7    3   22 1   
     8    3   23 1   
     9    4    5 1   
    10    5    6 1   
    11    5    8 1   
    12    5    9 1   
    13    6    7 2   
    14    6   24 1   
    15    8   17 1   
    16    8   25 1   
    17    8   26 1   
    18    9   10 1   
    19   10   11 1   
    20   10   15 1   
    21   10   27 1   
    22   11   12 1   
    23   11   13 1   
    24   11   28 1   
    25   12   29 1   
    26   13   14 1   
    27   13   30 1   
    28   13   31 1   
    29   14   32 1   
    30   15   16 1   
    31   15   17 1   
    32   15   33 1   
    33   16   34 1   
    34   17   18 1   
    35   17   35 1   
    36   18   36 1   
@<TRIPOS>SUBSTRUCTURE
     1 KDR         1 TEMP              0 ****  ****    0 ROOT
