@<TRIPOS>MOLECULE
molecule
   36    36     1     0     0
SMALL
bcc


@<TRIPOS>ATOM
      1 C11          0.0000     0.0000     0.0000 c2         1 KDR      -0.218000
      2 C10          1.3100     0.0000     0.0000 c2         1 KDR      -0.161200
      3 C9           2.0620     0.0000     1.3060 c3         1 KDR       0.152600
      4 O2           3.1260    -0.9530     1.2420 os         1 KDR      -0.431600
      5 C2           3.9060    -1.0330     2.4370 c3         1 KDR       0.233600
      6 C1           4.5290     0.3090     2.7210 c          1 KDR       0.575900
      7 O1A          4.3250     1.2400     1.9780 o          1 KDR      -0.498100
      8 C3           5.0100    -2.0790     2.2550 c3         1 KDR      -0.094400
      9 O6           3.0680    -1.4110     3.5300 os         1 KDR      -0.424600
     10 C6           2.4050    -2.6630     3.3500 c3         1 KDR       0.154100
     11 C7           1.5180    -2.9510     4.5630 c3         1 KDR       0.159100
     12 O7           0.8550    -4.2040     4.3840 oh         1 KDR      -0.609800
     13 C8           0.4760    -1.8390     4.7080 c3         1 KDR       0.113400
     14 O8          -0.2760    -2.0440     5.9050 oh         1 KDR      -0.616800
     15 C5           3.4470    -3.7760     3.2060 c3         1 KDR       0.115100
     16 O5           4.2200    -3.8640     4.4050 oh         1 KDR      -0.592800
     17 C4           4.3690    -3.4510     2.0260 c3         1 KDR       0.131100
     18 O4           5.3910    -4.4460     1.9290 oh         1 KDR      -0.600800
     19 H11         -0.5420     0.0000    -0.9380 ha         1 KDR       0.113500
     20 H11A        -0.5420     0.0000     0.9380 ha         1 KDR       0.113500
     21 H10          1.8520     0.0000    -0.9380 ha         1 KDR       0.136000
     22 H9           1.3880    -0.2650     2.1120 h1         1 KDR       0.051200
     23 H9A          2.4710     0.9870     1.4880 h1         1 KDR       0.051200
     24 H1           5.1550     0.4420     3.5950 h4         1 KDR       0.018200
     25 H3           5.6250    -2.1120     3.1460 hc         1 KDR       0.078200
     26 H3A          5.6180    -1.8170     1.3980 hc         1 KDR       0.078200
     27 H6           1.7970    -2.6230     2.4540 h1         1 KDR       0.069700
     28 H7           2.1290    -2.9900     5.4560 h1         1 KDR       0.070700
     29 HO7          0.6820    -4.5910     5.2260 ho         1 KDR       0.421000
     30 H8          -0.1910    -1.8570     3.8540 h1         1 KDR       0.035700
     31 H8A          0.9770    -0.8790     4.7550 h1         1 KDR       0.035700
     32 HO8         -0.8610    -1.3160     6.0370 ho         1 KDR       0.407000
     33 H5           2.9450    -4.7180     3.0230 h1         1 KDR       0.061700
     34 HO5          4.3780    -4.7700     4.6120 ho         1 KDR       0.410000
     35 H4           3.7900    -3.4300     1.1110 h1         1 KDR       0.055700
     36 HO4          5.4010    -4.8020     1.0560 ho         1 KDR       0.405000
@<TRIPOS>BOND
     1     1     2 2
     2     2     3 1
     3     3     4 1
     4     4     5 1
     5     5     6 1
     6     5     8 1
     7     5     9 1
     8     6     7 2
     9     8    17 1
    10     9    10 1
    11    10    11 1
    12    10    15 1
    13    11    12 1
    14    11    13 1
    15    13    14 1
    16    15    16 1
    17    15    17 1
    18    17    18 1
    19     1    19 1
    20     1    20 1
    21     2    21 1
    22     3    22 1
    23     3    23 1
    24     6    24 1
    25     8    25 1
    26     8    26 1
    27    10    27 1
    28    11    28 1
    29    12    29 1
    30    13    30 1
    31    13    31 1
    32    14    32 1
    33    15    33 1
    34    16    34 1
    35    17    35 1
    36    18    36 1
@<TRIPOS>SUBSTRUCTURE
     1 KDR         1 TEMP              0 ****  ****    0 ROOT
