@<TRIPOS>MOLECULE
molecule
   52    53     1     0     0
SMALL
bcc


@<TRIPOS>ATOM
      1 C1           0.0000     0.0000     0.0000 c3         1 KE1      -0.022500
      2 C2           1.5110     0.0000     0.0000 c2         1 KE1      -0.203600
      3 C3           1.9460     0.0000     1.2750 ce         1 KE1       0.191800
      4 C5          -0.3900    -0.0020     1.4890 c3         1 KE1       0.238500
      5 C7          -0.3200     2.4690     1.6870 c          1 KE1       0.603900
      6 C11         -0.5340     1.2570    -0.6900 c3         1 KE1      -0.103100
      7 C1A          2.1370    -1.6320    -2.1050 c3         1 KE1      -0.048600
      8 C2A          0.7040    -1.6410    -2.6710 c3         1 KE1       0.138800
      9 C31          3.3130     0.0020     1.6360 c          1 KE1       0.860800
     10 C4A          3.0490    -1.9530    -3.3120 c3         1 KE1      -0.083400
     11 C5A          2.0860    -2.6640    -4.2950 c3         1 KE1       0.074500
     12 C6          -1.1970     1.2520     1.8310 c3         1 KE1      -0.204700
     13 C61         -1.7030     1.1550     3.2710 c3         1 KE1       0.152100
     14 C62         -2.5100     2.4100     3.6140 c3         1 KE1      -0.127100
     15 C6A          2.5830    -2.5380    -5.7120 c          1 KE1       0.669100
     16 C8A          4.0450    -3.2300    -7.5340 c3         1 KE1       0.100300
     17 C9A          4.1390    -4.3590    -5.2640 c3         1 KE1       0.100300
     18 N3A          0.8120    -1.9210    -4.1190 n7         1 KE1      -0.790200
     19 N4           0.8950    -0.0000     2.2060 nu         1 KE1      -0.819000
     20 N7A          3.5600    -3.3520    -6.1570 n          1 KE1      -0.501800
     21 O31          3.6690    -0.1060     2.9340 o          1 KE1      -0.815300
     22 O32          4.1700     0.1010     0.7770 o          1 KE1      -0.815300
     23 O62         -2.5350     0.0020     3.4080 oh         1 KE1      -0.606800
     24 O6A          2.1040    -1.7040    -6.4510 o          1 KE1      -0.609100
     25 O7          -0.6840     3.3980     1.0070 o          1 KE1      -0.550100
     26 S21          2.5370     0.0000    -1.4320 ss         1 KE1      -0.180700
     27 H1          -0.3750    -0.8920    -0.4870 hc         1 KE1       0.044700
     28 H4          -0.9510    -0.8970     1.7280 h1         1 KE1       0.059700
     29 H5           0.6100     2.5330     2.2380 h4         1 KE1       0.025200
     30 H7           0.0440     2.1170    -0.3720 hc         1 KE1       0.039700
     31 H8          -0.4500     1.1430    -1.7640 hc         1 KE1       0.039700
     32 H9          -1.5740     1.4020    -0.4220 hc         1 KE1       0.039700
     33 H10          2.2430    -2.3950    -1.3430 h1         1 KE1       0.077700
     34 H11          0.1230    -2.4170    -2.1880 h1         1 KE1       0.058200
     35 H12          0.2410    -0.6740    -2.5160 h1         1 KE1       0.058200
     36 H13          3.4370    -1.0420    -3.7500 hc         1 KE1       0.059700
     37 H14          3.8520    -2.6180    -3.0170 hc         1 KE1       0.059700
     38 H15          1.9600    -3.7040    -4.0190 h1         1 KE1       0.075700
     39 H16         -2.0410     1.3330     1.1560 hc         1 KE1       0.089700
     40 H17         -0.8590     1.0740     3.9460 h1         1 KE1       0.037700
     41 H18         -3.0260     2.2620     4.5550 hc         1 KE1       0.040700
     42 H19         -1.8410     3.2580     3.6980 hc         1 KE1       0.040700
     43 H20         -3.2340     2.5980     2.8310 hc         1 KE1       0.040700
     44 H21          3.2580    -3.5200    -8.2210 h1         1 KE1       0.038533
     45 H22          4.3320    -2.2030    -7.7260 h1         1 KE1       0.038533
     46 H23          4.9020    -3.8770    -7.6740 h1         1 KE1       0.038533
     47 H24          4.7570    -5.0380    -5.8390 h1         1 KE1       0.038533
     48 H25          4.7460    -3.8690    -4.5120 h1         1 KE1       0.038533
     49 H26          3.3440    -4.9140    -4.7820 h1         1 KE1       0.038533
     50 H27          0.8570    -1.0570    -4.6230 hn         1 KE1       0.371800
     51 H29          1.0030    -0.0000     3.2010 hn         1 KE1       0.462800
     52 H32         -2.6130    -0.2240     4.3200 ho         1 KE1       0.398000
@<TRIPOS>BOND
     1    22     9 1
     2    25     5 2
     3    10     7 1
     4    10    11 1
     5    21     9 1
     6     7    26 1
     7     7     8 1
     8     9     3 1
     9    26     2 1
    10     5    12 1
    11    11    18 1
    12    11    15 1
    13     8    18 1
    14     3    19 1
    15     3     2 2
    16    19     4 1
    17    12     4 1
    18    12    13 1
    19     2     1 1
    20    23    13 1
    21    24    15 2
    22    15    20 1
    23     4     1 1
    24    13    14 1
    25     1     6 1
    26    20    16 1
    27    20    17 1
    28     1    27 1
    29     4    28 1
    30     5    29 1
    31     6    30 1
    32     6    31 1
    33     6    32 1
    34     7    33 1
    35     8    34 1
    36     8    35 1
    37    10    36 1
    38    10    37 1
    39    11    38 1
    40    12    39 1
    41    13    40 1
    42    14    41 1
    43    14    42 1
    44    14    43 1
    45    16    44 1
    46    16    45 1
    47    16    46 1
    48    17    47 1
    49    17    48 1
    50    17    49 1
    51    18    50 1
    52    19    51 1
    53    23    52 1
@<TRIPOS>SUBSTRUCTURE
     1 KE1         1 TEMP              0 ****  ****    0 ROOT
