@<TRIPOS>MOLECULE
KE4
   43    43     1     0     0
SMALL
bcc


@<TRIPOS>ATOM
      1 P          -2.1450    0.0520   -1.9290 p5        1 KE4      1.315900
      2 OP1        -1.7790   -1.1900   -2.6880 o         1 KE4     -0.922167
      3 OP2        -2.4890   -0.1230   -0.4740 o         1 KE4     -0.922167
      4 OP3        -2.9870    1.0660   -2.6700 o         1 KE4     -0.922167
      5 OP4        -0.6440    0.9260   -1.8550 os        1 KE4     -0.564200
      6 C5A        -0.4520    1.7360   -0.7670 c3        1 KE4      0.240700
      7 C5         -0.5510    3.2070   -1.1060 ca        1 KE4     -0.139600
      8 C6         -1.4420    3.5620   -2.1700 ca        1 KE4      0.386200
      9 N1         -1.6370    4.8050   -2.6060 nb        1 KE4     -0.689000
     10 C2         -0.9710    5.8170   -1.9750 ca        1 KE4      0.327600
     11 C2A        -1.1540    7.2200   -2.4500 c3        1 KE4     -0.114400
     12 C3         -0.1030    5.5600   -0.8990 ca        1 KE4     -0.054200
     13 O3          0.5380    6.6470   -0.3210 oh        1 KE4     -0.543100
     14 C4          0.1270    4.2340   -0.4500 ca        1 KE4     -0.144300
     15 C4A         1.0450    4.0160    0.7210 c3        1 KE4      0.210100
     16 N4A         2.4100    4.4700    0.5100 n3        1 KE4     -0.828200
     17 CA          3.1320    4.9750    1.6700 c3        1 KE4      0.144500
     18 C           2.8090    6.4420    2.0810 c3        1 KE4      0.090800
     19 N5          3.1410    7.4680    1.1240 n3        1 KE4     -0.916800
     20 CB          3.0180    4.1040    2.9330 c3        1 KE4     -0.059400
     21 CG          4.3390    3.9490    3.6540 c3        1 KE4     -0.184400
     22 CD          4.7370    5.1150    4.5670 c         1 KE4      0.901600
     23 OE1         3.8420    5.8030    5.1430 o         1 KE4     -0.866800
     24 OE2         5.9760    5.3260    4.7430 o         1 KE4     -0.866800
     25 H5A1        0.5820    1.5430   -0.3510 h1        1 KE4      0.027200
     26 H5A2       -1.2210    1.5140    0.0360 h1        1 KE4      0.027200
     27 H6         -2.0350    2.7030   -2.6430 h4        1 KE4      0.158100
     28 H2A1       -0.4060    7.4480   -3.2500 hc        1 KE4      0.022700
     29 H2A2       -0.9890    7.9310   -1.6030 hc        1 KE4      0.022700
     30 H2A3       -2.1770    7.3850   -2.8670 hc        1 KE4      0.022700
     31 HO3         0.4770    6.5210    0.6380 ho        1 KE4      0.409000
     32 H4A1        0.5770    4.5180    1.6230 h1        1 KE4      0.041700
     33 H4A2        1.1040    2.9140    0.9570 h1        1 KE4      0.041700
     34 HN4A        2.4330    5.1570   -0.2230 hn        1 KE4      0.353800
     35 HA          4.2180    4.9560    1.3390 h1        1 KE4      0.042700
     36 H1          1.7110    6.5240    2.3140 h1        1 KE4      0.074700
     37 H2          3.3750    6.6470    3.0410 h1        1 KE4      0.074700
     38 HN51        4.1180    7.4260    0.9040 hn        1 KE4      0.334800
     39 HN52        2.6250    7.3430    0.2710 hn        1 KE4      0.334800
     40 HB1         2.6400    3.0830    2.6580 hc        1 KE4      0.043700
     41 HB2         2.2730    4.5630    3.6370 hc        1 KE4      0.043700
     42 HG1         4.2760    3.0430    4.3140 hc        1 KE4      0.022200
     43 HG2         5.1660    3.7690    2.9220 hc        1 KE4      0.022200
@<TRIPOS>BOND
     1    1    2 1   
     2    1    3 1   
     3    1    4 1   
     4    1    5 1   
     5    5    6 1   
     6    6    7 1   
     7    6   25 1   
     8    6   26 1   
     9    7    8 ar  
    10    7   14 ar  
    11    8    9 ar  
    12    8   27 1   
    13    9   10 ar  
    14   10   11 1   
    15   10   12 ar  
    16   11   28 1   
    17   11   29 1   
    18   11   30 1   
    19   12   13 1   
    20   12   14 ar  
    21   13   31 1   
    22   14   15 1   
    23   15   16 1   
    24   15   32 1   
    25   15   33 1   
    26   16   17 1   
    27   16   34 1   
    28   17   18 1   
    29   17   20 1   
    30   17   35 1   
    31   18   19 1   
    32   18   36 1   
    33   18   37 1   
    34   19   38 1   
    35   19   39 1   
    36   20   21 1   
    37   20   40 1   
    38   20   41 1   
    39   21   22 1   
    40   21   42 1   
    41   21   43 1   
    42   22   23 1   
    43   22   24 1   
@<TRIPOS>SUBSTRUCTURE
     1 KE4         1 TEMP              0 ****  ****    0 ROOT
