@<TRIPOS>MOLECULE
molecule
   56    59     1     0     0
SMALL
bcc


@<TRIPOS>ATOM
      1 C1           0.0000     0.0000     0.0000 c3         1 KE9      -0.131100
      2 C2           1.5290     0.0000     0.0000 c3         1 KE9       0.150500
      3 C4           2.0420     0.0000     1.4470 c3         1 KE9       0.011800
      4 C5           1.7590     1.3570     2.0410 cc         1 KE9      -0.141400
      5 C6           1.7610     1.7700     3.4260 ca         1 KE9      -0.094800
      6 C7           2.0140     1.0900     4.6220 ca         1 KE9      -0.079000
      7 C8           1.9230     1.8170     5.7830 ca         1 KE9      -0.167000
      8 C9           1.5980     3.1640     5.7850 ca         1 KE9      -0.118000
      9 C10          1.3430     3.8630     4.6170 ca         1 KE9      -0.143000
     10 C11          1.4270     3.1500     3.4230 ca         1 KE9      -0.036200
     11 N12          1.2420     3.5210     2.1220 na         1 KE9      -0.158400
     12 C14          1.4430     2.4440     1.3000 cd         1 KE9      -0.045300
     13 C15          1.3450     2.4140    -0.2060 c3         1 KE9       0.299000
     14 N17          2.0200     1.1990    -0.6930 n3         1 KE9      -0.703600
     15 C18          1.8740     1.0640    -2.1480 c3         1 KE9       0.138800
     16 C19          2.9710     0.1450    -2.6880 c3         1 KE9       0.177300
     17 C20          2.8790     0.0820    -4.2130 c3         1 KE9      -0.110100
     18 C21          4.3400     0.6940    -2.2820 c3         1 KE9      -0.110100
     19 F22          2.8070    -1.1390    -2.1570 f          1 KE9      -0.253300
     20 C23          2.0180     3.6340    -0.7820 ca         1 KE9      -0.228300
     21 C24          1.2510     4.6750    -1.2790 ca         1 KE9       0.170900
     22 C25          1.8620     5.7950    -1.8090 ca         1 KE9      -0.206000
     23 C26          3.2570     5.8770    -1.8420 ca         1 KE9       0.051200
     24 C27          4.0260     4.8220    -1.3380 ca         1 KE9      -0.206000
     25 C28          3.4020     3.7100    -0.8060 ca         1 KE9       0.170900
     26 F29          4.1420     2.6930    -0.3140 f          1 KE9      -0.136400
     27 C30          3.9150     7.0670    -2.4040 ce         1 KE9      -0.199200
     28 C31          5.2620     7.1430    -2.4350 cf         1 KE9      -0.109200
     29 C32          5.9150     8.3250    -2.9940 c          1 KE9       0.859800
     30 O33          7.2620     8.4010    -3.0240 o          1 KE9      -0.828800
     31 O34          5.2450     9.2420    -3.4320 o          1 KE9      -0.828800
     32 F35         -0.0970     4.5940    -1.2470 f          1 KE9      -0.136400
     33 H11C        -0.3610     0.3330    -0.9650 hc         1 KE9       0.038367
     34 H12C        -0.3610    -1.0030     0.1940 hc         1 KE9       0.038367
     35 H13C        -0.3610     0.6690     0.7710 hc         1 KE9       0.038367
     36 H2           1.8950    -0.8830    -0.5100 h1         1 KE9       0.092700
     37 H41C         1.5250    -0.7630     2.0170 hc         1 KE9       0.051700
     38 H42C         3.1090    -0.1870     1.4560 hc         1 KE9       0.051700
     39 H7           2.2680     0.0370     4.6320 ha         1 KE9       0.130000
     40 H8           2.1120     1.3220     6.7280 ha         1 KE9       0.116000
     41 H9           1.5400     3.6870     6.7310 ha         1 KE9       0.119000
     42 H10          1.0900     4.9160     4.6310 ha         1 KE9       0.130000
     43 H12          0.9940     4.4410     1.8150 hn         1 KE9       0.303700
     44 H15          0.3030     2.3930    -0.5010 h1         1 KE9       0.051700
     45 H181         1.9590     2.0390    -2.6120 h1         1 KE9       0.050700
     46 H182         0.9030     0.6400    -2.3760 h1         1 KE9       0.050700
     47 H201         1.8900    -0.2520    -4.5020 hc         1 KE9       0.049700
     48 H202         3.6200    -0.6130    -4.5920 hc         1 KE9       0.049700
     49 H203         3.0630     1.0660    -4.6270 hc         1 KE9       0.049700
     50 H211         4.4220     1.7280    -2.5950 hc         1 KE9       0.049700
     51 H212         4.4490     0.6320    -1.2060 hc         1 KE9       0.049700
     52 H213         5.1190     0.1100    -2.7580 hc         1 KE9       0.049700
     53 H25          1.2620     6.5760    -2.2600 ha         1 KE9       0.158500
     54 H27          5.1050     4.9110    -1.2930 ha         1 KE9       0.158500
     55 H30          3.3180     7.8820    -2.7940 ha         1 KE9       0.159000
     56 H31          5.8590     6.3270    -2.0450 ha         1 KE9       0.107000
@<TRIPOS>BOND
     1     1     2 1
     2     2     3 1
     3     2    14 1
     4     3     4 1
     5     4     5 1
     6     4    12 2
     7     5     6 ar
     8     5    10 ar
     9     6     7 ar
    10     7     8 ar
    11     8     9 ar
    12     9    10 ar
    13    10    11 1
    14    11    12 1
    15    12    13 1
    16    13    14 1
    17    13    20 1
    18    14    15 1
    19    15    16 1
    20    16    17 1
    21    16    18 1
    22    16    19 1
    23    20    21 ar
    24    20    25 ar
    25    21    22 ar
    26    21    32 1
    27    22    23 ar
    28    23    24 ar
    29    23    27 1
    30    24    25 ar
    31    25    26 1
    32    27    28 2
    33    28    29 1
    34    29    30 1
    35    29    31 1
    36     1    33 1
    37     1    34 1
    38     1    35 1
    39     2    36 1
    40     3    37 1
    41     3    38 1
    42     6    39 1
    43     7    40 1
    44     8    41 1
    45     9    42 1
    46    11    43 1
    47    13    44 1
    48    15    45 1
    49    15    46 1
    50    17    47 1
    51    17    48 1
    52    17    49 1
    53    18    50 1
    54    18    51 1
    55    18    52 1
    56    22    53 1
    57    24    54 1
    58    27    55 1
    59    28    56 1
@<TRIPOS>SUBSTRUCTURE
     1 KE9         1 TEMP              0 ****  ****    0 ROOT
