@<TRIPOS>MOLECULE
KE9
   56    61     1     0     0
SMALL
bcc


@<TRIPOS>ATOM
      1 C1           0.0000     0.0000     0.0000 c3         1 KE9      -0.167000
      2 C2           1.5290     0.0000     0.0000 c3         1 KE9      -0.102000
      3 C4           2.0420     0.0000     1.4470 c3         1 KE9       0.003000
      4 C5           1.7590     1.3570     2.0410 c2         1 KE9      -0.150000
      5 C6           1.7610     1.7700     3.4260 ca         1 KE9      -0.080000
      6 C7           2.0140     1.0900     4.6220 ca         1 KE9      -0.044000
      7 C8           1.9230     1.8170     5.7830 ca         1 KE9      -0.146000
      8 C9           1.5980     3.1640     5.7850 ca         1 KE9      -0.097000
      9 C10          1.3430     3.8630     4.6170 ca         1 KE9      -0.104000
     10 C11          1.4270     3.1500     3.4230 ca         1 KE9      -0.188000
     11 N12          1.2420     3.5210     2.1220 na         1 KE9       0.377000
     12 C14          1.4430     2.4440     1.3000 c2         1 KE9      -0.220000
     13 C15          1.3450     2.4140    -0.2060 c3         1 KE9       0.095000
     14 N17          2.0200     1.1990    -0.6930 n3         1 KE9      -0.033000
     15 C18          1.8740     1.0640    -2.1480 c3         1 KE9      -0.129000
     16 C19          2.9710     0.1450    -2.6880 c3         1 KE9       0.094000
     17 C20          2.8790     0.0820    -4.2130 c3         1 KE9      -0.149000
     18 C21          4.3400     0.6940    -2.2820 c3         1 KE9      -0.149000
     19 F22          2.8070    -1.1390    -2.1570 f          1 KE9      -0.166000
     20 C23          2.0180     3.6340    -0.7820 c2         1 KE9      -0.293000
     21 C24          1.2510     4.6750    -1.2790 c2         1 KE9       0.153000
     22 C25          1.8620     5.7950    -1.8090 c2         1 KE9      -0.267500
     23 C26          3.2570     5.8770    -1.8420 c3         1 KE9       0.149000
     24 C27          4.0260     4.8220    -1.3380 c2         1 KE9      -0.267500
     25 C28          3.4020     3.7100    -0.8060 c2         1 KE9       0.153000
     26 F29          4.1420     2.6930    -0.3140 f          1 KE9      -0.097500
     27 C30          3.9150     7.0670    -2.4040 c2         1 KE9      -0.065000
     28 C31          5.2620     7.1430    -2.4350 c2         1 KE9      -0.159000
     29 C32          5.9150     8.3250    -2.9940 c3         1 KE9       0.492000
     30 O33          7.2620     8.4010    -3.0240 o          1 KE9      -0.571500
     31 O34          5.2450     9.2420    -3.4320 o          1 KE9      -0.571500
     32 F35         -0.0970     4.5940    -1.2470 f          1 KE9      -0.097500
     33 H11C        -0.3610    -1.0030     0.1940 hc         1 KE9       0.051667
     34 H12C        -0.3610     0.3330    -0.9660 hc         1 KE9       0.051667
     35 H13C        -0.3610     0.6700     0.7710 hc         1 KE9       0.051667
     36 H2           1.8950    -0.8830    -0.5100 h1         1 KE9       0.104000
     37 H41C         1.5250    -0.7630     2.0170 hc         1 KE9       0.058500
     38 H42C         3.1090    -0.1870     1.4560 hc         1 KE9       0.058500
     39 H7           2.2680     0.0370     4.6320 ha         1 KE9       0.101000
     40 H8           2.1120     1.3220     6.7280 ha         1 KE9       0.091000
     41 H9           1.5400     3.6870     6.7310 ha         1 KE9       0.090000
     42 H10          1.0900     4.9160     4.6310 ha         1 KE9       0.104000
     43 H12          0.9950     4.4410     1.8150 hn         1 KE9       0.070000
     44 H15          0.3030     2.3930    -0.5010 h1         1 KE9       0.067000
     45 H181         0.9030     0.6400    -2.3760 h1         1 KE9       0.071500
     46 H182         1.9590     2.0390    -2.6120 h1         1 KE9       0.071500
     47 H201         1.8900    -0.2530    -4.5020 hc         1 KE9       0.060500
     48 H202         3.6200    -0.6130    -4.5920 hc         1 KE9       0.060500
     49 H203         3.0630     1.0660    -4.6270 hc         1 KE9       0.060500
     50 H211         4.4500     0.6310    -1.2060 hc         1 KE9       0.060500
     51 H212         5.1190     0.1110    -2.7590 hc         1 KE9       0.060500
     52 H213         4.4210     1.7280    -2.5940 hc         1 KE9       0.060500
     53 H25          1.2620     6.6360    -2.1350 ha         1 KE9       0.144000
     54 H27          5.1040     4.9120    -1.2910 ha         1 KE9       0.144000
     55 H30          3.8110     6.1220    -2.9250 DU         1 KE9       0.016000
     56 H31          5.3730     7.3370    -3.4950 DU         1 KE9       0.088000
@<TRIPOS>BOND
     1     1     2 1   
     2     1    33 1   
     3     1    34 1   
     4     1    35 1   
     5     2     3 1   
     6     2    14 1   
     7     2    36 1   
     8     3     4 1   
     9     3    37 1   
    10     3    38 1   
    11     4     5 1   
    12     4    12 1   
    13     5     6 1   
    14     5    10 1   
    15     6     7 1   
    16     6    39 1   
    17     7     8 1   
    18     7    40 1   
    19     8     9 1   
    20     8    41 1   
    21     9    10 1   
    22     9    42 1   
    23    10    11 1   
    24    11    12 1   
    25    11    43 1   
    26    12    13 1   
    27    13    14 1   
    28    13    20 1   
    29    13    44 1   
    30    14    15 1   
    31    15    16 1   
    32    15    45 1   
    33    15    46 1   
    34    16    17 1   
    35    16    18 1   
    36    16    19 1   
    37    17    47 1   
    38    17    48 1   
    39    17    49 1   
    40    18    50 1   
    41    18    51 1   
    42    18    52 1   
    43    20    21 1   
    44    20    25 1   
    45    21    22 1   
    46    21    32 1   
    47    22    23 1   
    48    22    53 1   
    49    23    24 1   
    50    23    27 1   
    51    23    55 1   
    52    24    25 1   
    53    24    54 1   
    54    25    26 1   
    55    27    28 1   
    56    27    55 1   
    57    28    29 1   
    58    28    56 1   
    59    29    30 1   
    60    29    31 1   
    61    29    56 1   
@<TRIPOS>SUBSTRUCTURE
     1 KE9         1 TEMP              0 ****  ****    0 ROOT
