@<TRIPOS>MOLECULE
KEE
   41    44     1     0     0
SMALL
bcc


@<TRIPOS>ATOM
      1 C1          0.0240    0.6030   -0.1400 c         1 KEE      0.608100
      2 C2          1.4570    0.2720   -0.1720 cx        1 KEE     -0.266700
      3 C3          2.2210    0.1570    1.1420 cx        1 KEE      0.025600
      4 C4          2.0750   -1.0460    0.2450 cx        1 KEE     -0.042400
      5 C5          3.5050    0.8510    1.2940 ca        1 KEE     -0.110300
      6 C6          3.7970    1.4760    2.5160 ca        1 KEE     -0.104500
      7 C7          5.0060    2.1380    2.6990 ca        1 KEE     -0.107000
      8 C8          5.9490    2.1920    1.6600 ca        1 KEE     -0.071500
      9 C9          5.6570    1.5690    0.4350 ca        1 KEE     -0.107000
     10 C10         4.4460    0.9070    0.2580 ca        1 KEE     -0.104500
     11 C11         1.2750   -2.2220    0.6200 ca        1 KEE     -0.141300
     12 C12         0.9290   -3.1470   -0.3810 ca        1 KEE     -0.150000
     13 C13         0.2400   -4.3120   -0.0540 ca        1 KEE     -0.119000
     14 C14        -0.1080   -4.5710    1.2740 ca        1 KEE     -0.105000
     15 C15         0.2380   -3.6610    2.2720 ca        1 KEE     -0.119000
     16 C16         0.9280   -2.4920    1.9490 ca        1 KEE     -0.150000
     17 C17         7.2020    2.8720    1.8320 cc        1 KEE      0.170900
     18 O18         7.4600    3.4900    3.0710 os        1 KEE     -0.380800
     19 C19         8.7310    4.0560    2.9350 cc        1 KEE      0.510300
     20 N20         9.2640    3.8390    1.7350 nd        1 KEE     -0.661000
     21 C21         8.3170    3.0940    1.0230 cd        1 KEE      0.279900
     22 O22        -0.5360    1.6730   -0.0640 o         1 KEE     -0.342100
     23 N23        -0.9020   -0.6510   -0.2470 n4        1 KEE     -0.480300
     24 O24        -2.1470   -0.2350   -0.5550 oh        1 KEE     -0.346300
     25 H2          1.9440    0.8310   -1.0090 hc        1 KEE      0.161700
     26 H23        -0.8740   -1.1500    0.6630 hn        1 KEE      0.465800
     27 H3          1.6120    0.1790    2.0740 hc        1 KEE      0.097700
     28 H4          2.9780   -1.3490   -0.3410 hc        1 KEE      0.133700
     29 H6          3.0690    1.4440    3.3410 ha        1 KEE      0.132000
     30 H10         4.2380    0.4250   -0.7100 ha        1 KEE      0.132000
     31 H7          5.2310    2.6260    3.6620 ha        1 KEE      0.158000
     32 H9          6.3900    1.6050   -0.3860 ha        1 KEE      0.158000
     33 H12         1.2550   -2.9770   -1.4200 ha        1 KEE      0.150000
     34 H16         1.2390   -1.8080    2.7550 ha        1 KEE      0.150000
     35 H13        -0.0060   -5.0440   -0.8410 ha        1 KEE      0.162000
     36 H14        -0.6360   -5.5030    1.5340 ha        1 KEE      0.164000
     37 H15        -0.0120   -3.8750    3.3240 ha        1 KEE      0.162000
     38 H21         8.5070    2.7780   -0.0040 h4        1 KEE      0.058100
     39 H19         9.1150    4.5900    3.8070 h5        1 KEE      0.100100
     40 H24        -2.7540   -1.0090   -0.5520 ho        1 KEE      0.462000
     41 H232       -0.5200   -1.2820   -0.9770 hn        1 KEE      0.465800
@<TRIPOS>BOND
     1    1    2 1   
     2    1   22 2   
     3    1   23 1   
     4    2    3 1   
     5    2    4 1   
     6    2   25 1   
     7    3    4 1   
     8    3    5 1   
     9    3   27 1   
    10    4   11 1   
    11    4   28 1   
    12    5    6 ar  
    13    5   10 ar  
    14    6    7 ar  
    15    6   29 1   
    16    7    8 ar  
    17    7   31 1   
    18    8    9 ar  
    19    8   17 1   
    20    9   10 ar  
    21    9   32 1   
    22   10   30 1   
    23   11   12 ar  
    24   11   16 ar  
    25   12   13 ar  
    26   12   33 1   
    27   13   14 ar  
    28   13   35 1   
    29   14   15 ar  
    30   14   36 1   
    31   15   16 ar  
    32   15   37 1   
    33   16   34 1   
    34   17   18 1   
    35   17   21 2   
    36   18   19 1   
    37   19   20 2   
    38   19   39 1   
    39   20   21 1   
    40   21   38 1   
    41   23   24 1   
    42   23   26 1   
    43   23   41 1   
    44   24   40 1   
@<TRIPOS>SUBSTRUCTURE
     1 KEE         1 TEMP              0 ****  ****    0 ROOT
