@<TRIPOS>MOLECULE
KEF
   46    43     1     0     0
SMALL
bcc


@<TRIPOS>ATOM
      1 C14         1.0370   -3.0710   -1.1660 c2        1 KEF     -0.173000
      2 O15        -0.9000   -5.6200   -2.3890 o         1 KEF     -0.239000
      3 C16        -1.4630   -6.6340   -2.5730 c1        1 KEF      0.240000
      4 C17         3.1360   -3.8530    0.1630 c2        1 KEF     -0.136000
      5 C19         2.0840   -3.4460   -0.4720 c1        1 KEF     -0.055000
      6 N16         1.0360   -0.6820   -0.6780 n2        1 KEF     -0.105000
      7 C4'         5.5530    0.6170   -2.1260 c2        1 KEF      0.340000
      8 C11         0.0650   -1.5240   -2.8130 c2        1 KEF      0.251000
      9 C13         0.7490   -1.6700   -1.4750 c2        1 KEF      0.060000
     10 C2          3.5840    3.7750   -1.7110 c2        1 KEF     -0.491000
     11 C3          4.3250    2.6830   -1.4780 c2        1 KEF     -0.179000
     12 C4          4.2700    1.4240   -2.2010 c2        1 KEF      0.236000
     13 C6          1.7710    5.2790   -2.9690 c1        1 KEF     -0.845000
     14 C7          2.0500   -0.8910   -4.0710 c2        1 KEF     -0.563000
     15 C8          3.2380   -0.3200   -3.6230 c2        1 KEF      0.363000
     16 N10         0.6970   -0.5430   -3.7830 n4        1 KEF      0.023000
     17 N5          3.2200    0.9510   -2.8440 n         1 KEF     -0.186000
     18 O4A         5.5440   -0.1710   -1.0240 os        1 KEF     -0.288000
     19 O4B         6.5130    0.6900   -2.8820 o         1 KEF     -0.270000
     20 O12        -0.9240   -2.1190   -3.2070 o         1 KEF     -0.158000
     21 S1          2.3840    4.0660   -2.9240 ss        1 KEF      1.165000
     22 O3'         5.9990   -2.3380   -1.0010 os        1 KEF     -0.265000
     23 C31         6.0480   -3.0190   -2.2180 c2        1 KEF      0.381000
     24 O31         5.5350   -4.1420   -2.1000 o         1 KEF     -0.340000
     25 N31         6.6640   -2.4820   -3.3250 n         1 KEF     -0.384000
     26 H16         4.0900   -4.0670   -0.3640 ha        1 KEF      0.185000
     27 H17         3.1470   -4.0100    1.2540 ha        1 KEF      0.185000
     28 H19         0.3160   -3.8060   -1.5770 ha        1 KEF      0.195000
     29 H183        0.6360    1.5910    0.6770 ha        1 KEF      0.105000
     30 H182       -0.9510   -0.5060   -6.5910 ha        1 KEF      0.003000
     31 H181       -0.9180    0.0870   -6.2640 ha        1 KEF      0.003000
     32 H3'2        6.8240   -1.0330    0.2980 h2        1 KEF      0.152000
     33 H3'1        5.1020    2.6820   -0.6850 ha        1 KEF      0.175000
     34 H2          3.7890    4.6430   -1.0500 h4        1 KEF      0.173000
     35 H4          2.3740    1.4930   -2.8250 hn        1 KEF      0.245000
     36 H6          1.2920    6.2330   -3.0070 ha        1 KEF      0.233000
     37 H7          2.1590   -1.7870   -4.7070 hx        1 KEF      0.219000
     38 H10         0.1620   -0.5760   -4.6710 hn        1 KEF      0.241500
     39 HN31        7.5140   -0.8910   -1.4470 h2        1 KEF      0.152000
     40 HN32        6.6410   -1.4930   -3.4460 hn        1 KEF      0.239500
     41 O17         0.8190    0.5850   -1.1670 os        1 KEF     -0.124000
     42 O9          4.3860   -0.7580   -3.8340 o         1 KEF     -0.368000
     43 H102        0.6040    0.3960   -3.3870 hn        1 KEF      0.241500
     44 H313        6.5700   -3.0190   -4.1590 hn        1 KEF      0.239500
     45 C3'         6.6210   -1.1020   -0.8100 c3        1 KEF      0.116000
     46 C18         0.6760    1.6280   -0.4270 c1        1 KEF      0.007000
@<TRIPOS>BOND
     1    1    5 1
     2    1    9 1
     3    1   28 1
     4    2    3 1
     5    4    5 1
     6    4   26 1
     7    4   27 1
     8    6    9 1
     9    6   41 1
    10    7   12 1
    11    7   18 1
    12    7   19 1
    13    8    9 1
    14    8   16 1
    15    8   20 1
    16   10   11 1
    17   10   21 1
    18   10   34 1
    19   11   12 1
    20   11   33 1
    21   12   17 1
    22   13   21 1
    23   13   36 1
    24   14   15 1
    25   14   16 1
    26   14   37 1
    27   15   17 1
    28   15   42 1
    29   16   38 1
    30   16   43 1
    31   17   35 1
    32   18   45 1
    33   22   23 1
    34   22   45 1
    35   23   24 1
    36   23   25 1
    37   25   40 1
    38   25   44 1
    39   29   46 1
    40   30   31 1
    41   32   45 1
    42   39   45 1
    43   41   46 1
@<TRIPOS>SUBSTRUCTURE
     1 KEF         1 TEMP              0 ****  ****    0 ROOT
