@<TRIPOS>MOLECULE
molecule
   34    34     1     0     0
SMALL
bcc


@<TRIPOS>ATOM
      1 Cl           0.0000     0.0000     0.0000 cl         1 KEK      -0.111400
      2 C02          1.7360     0.0000     0.0000 ca         1 KEK       0.027400
      3 C03          2.4290     0.0000     1.1970 ca         1 KEK      -0.123000
      4 C04          3.8110    -0.0010     1.1960 ca         1 KEK      -0.131000
      5 C05          4.5010     0.0010    -0.0010 ca         1 KEK      -0.127000
      6 C06          3.8110     0.0020    -1.1980 ca         1 KEK      -0.115000
      7 C07          2.4280    -0.0050    -1.1980 ca         1 KEK      -0.068300
      8 C08          1.6740    -0.0100    -2.5030 c3         1 KEK      -0.033100
      9 C09          1.3100     1.4250    -2.8880 c3         1 KEK      -0.181400
     10 C10          0.5560     1.4200    -4.1930 c          1 KEK       0.571100
     11 C11          0.0810     2.7170    -4.7940 c3         1 KEK      -0.133500
     12 C12         -0.0680     2.5550    -6.2850 c2         1 KEK      -0.169200
     13 C13          0.6440     3.3250    -7.1160 ce         1 KEK      -0.202200
     14 C14          0.4990     3.1680    -8.5640 c          1 KEK       0.436300
     15 C15          1.2940     4.0270    -9.4930 c          1 KEK       0.845600
     16 O16          1.1730     3.8960   -10.7000 o          1 KEK      -0.811300
     17 O17          2.0650     4.8600    -9.0450 o          1 KEK      -0.811300
     18 O18         -0.2690     2.3390    -9.0110 o          1 KEK      -0.553100
     19 C19         -1.2700     3.0970    -4.1850 c3         1 KEK      -0.076100
     20 O20          0.3330     0.3760    -4.7570 o          1 KEK      -0.519100
     21 H03          1.8880    -0.0020     2.1360 ha         1 KEK       0.138000
     22 H04          4.3530    -0.0010     2.1340 ha         1 KEK       0.130000
     23 H05          5.5850     0.0040    -0.0010 ha         1 KEK       0.130000
     24 H06          4.3520     0.0010    -2.1360 ha         1 KEK       0.143000
     25 H081         0.7690    -0.5960    -2.3950 hc         1 KEK       0.069200
     26 H082         2.2950    -0.4450    -3.2770 hc         1 KEK       0.069200
     27 H091         0.6890     1.8600    -2.1140 hc         1 KEK       0.067200
     28 H092         2.2150     2.0100    -2.9960 hc         1 KEK       0.067200
     29 H11          0.8030     3.4970    -4.5860 hc         1 KEK       0.065700
     30 H12         -0.7520     1.8160    -6.6840 ha         1 KEK       0.154000
     31 H191        -1.6040     2.3050    -3.5250 hc         1 KEK       0.037033
     32 H192        -1.9960     3.2390    -4.9760 hc         1 KEK       0.037033
     33 H193        -1.1660     4.0170    -3.6210 hc         1 KEK       0.037033
     34 H13          1.3280     4.0650    -6.7170 ha         1 KEK       0.141000
@<TRIPOS>BOND
     1     1     2 1
     2     2     3 ar
     3     2     7 ar
     4     3     4 ar
     5     4     5 ar
     6     5     6 ar
     7     6     7 ar
     8     7     8 1
     9     8     9 1
    10     9    10 1
    11    10    11 1
    12    10    20 2
    13    11    12 1
    14    11    19 1
    15    12    13 2
    16    13    14 1
    17    14    15 1
    18    14    18 2
    19    15    16 1
    20    15    17 1
    21     3    21 1
    22     4    22 1
    23     5    23 1
    24     6    24 1
    25     8    25 1
    26     8    26 1
    27     9    27 1
    28     9    28 1
    29    11    29 1
    30    12    30 1
    31    19    31 1
    32    19    32 1
    33    19    33 1
    34    13    34 1
@<TRIPOS>SUBSTRUCTURE
     1 KEK         1 TEMP              0 ****  ****    0 ROOT
