@<TRIPOS>MOLECULE
KEK
   34    34     1     0     0
SMALL
bcc


@<TRIPOS>ATOM
      1 CL          0.9620   -0.6850    0.5900 cl        1 KEK     -0.132400
      2 C02         2.2300    0.2440   -0.0850 ca        1 KEK      0.007400
      3 C03         3.4000    0.3910    0.6660 ca        1 KEK     -0.145000
      4 C04         4.4570    1.1370    0.1500 ca        1 KEK     -0.145000
      5 C05         4.3410    1.7250   -1.1080 ca        1 KEK     -0.125000
      6 C06         3.1730    1.5780   -1.8550 ca        1 KEK     -0.106000
      7 C07         2.0940    0.8350   -1.3530 ca        1 KEK     -0.061300
      8 C08         0.8320    0.6560   -2.1220 c3        1 KEK     -0.024100
      9 C09         0.7860    1.4350   -3.4140 c3        1 KEK     -0.211400
     10 C10        -0.5010    1.2810   -4.1610 c         1 KEK      0.591100
     11 C11        -0.5410    2.0410   -5.4760 c3        1 KEK     -0.158500
     12 C12         0.2140    1.2790   -6.5110 c2        1 KEK     -0.145200
     13 C13         1.3460    1.6710   -7.0990 ce        1 KEK     -0.213200
     14 C14         2.1070    2.9160   -6.8340 c         1 KEK      0.463300
     15 C15         2.5620    3.1390   -5.3860 c         1 KEK      0.851600
     16 O16         3.5350    2.4570   -4.9640 o         1 KEK     -0.816800
     17 O17         1.9020    3.9550   -4.6860 o         1 KEK     -0.816800
     18 O18         2.3790    3.6890   -7.7600 o         1 KEK     -0.565100
     19 C19        -1.9680    2.2770   -5.9290 c3        1 KEK     -0.074100
     20 O20        -1.4580    0.6110   -3.7540 o         1 KEK     -0.578100
     21 H03         3.4840   -0.0780    1.6560 ha        1 KEK      0.127000
     22 H04         5.3790    1.2560    0.7360 ha        1 KEK      0.118000
     23 H05         5.1730    2.3120   -1.5250 ha        1 KEK      0.140000
     24 H06         3.1210    2.0580   -2.8600 ha        1 KEK      0.218000
     25 H081       -0.0390    0.9650   -1.4790 hc        1 KEK      0.055700
     26 H082        0.6930   -0.4380   -2.3430 hc        1 KEK      0.055700
     27 H091        1.6260    1.1240   -4.1000 hc        1 KEK      0.116700
     28 H092        0.9510    2.5370   -3.2220 hc        1 KEK      0.116700
     29 H11        -0.0360    3.0420   -5.2980 hc        1 KEK      0.128700
     30 H12        -0.2490    0.3170   -6.7900 ha        1 KEK      0.108000
     31 H191       -2.5130    2.8800   -5.1640 hc        1 KEK      0.032700
     32 H192       -2.5040    1.3060   -6.0580 hc        1 KEK      0.032700
     33 H193       -1.9760    2.8300   -6.8980 hc        1 KEK      0.032700
     34 H13         1.8190    1.0280   -7.8620 ha        1 KEK      0.124000
@<TRIPOS>BOND
     1    1    2 1   
     2    2    3 ar  
     3    2    7 ar  
     4    3    4 ar  
     5    3   21 1   
     6    4    5 ar  
     7    4   22 1   
     8    5    6 ar  
     9    5   23 1   
    10    6    7 ar  
    11    6   24 1   
    12    7    8 1   
    13    8    9 1   
    14    8   25 1   
    15    8   26 1   
    16    9   10 1   
    17    9   27 1   
    18    9   28 1   
    19   10   11 1   
    20   10   20 2   
    21   11   12 1   
    22   11   19 1   
    23   11   29 1   
    24   12   13 2   
    25   12   30 1   
    26   13   14 1   
    27   13   34 1   
    28   14   15 1   
    29   14   18 2   
    30   15   16 1   
    31   15   17 1   
    32   19   31 1   
    33   19   32 1   
    34   19   33 1   
@<TRIPOS>SUBSTRUCTURE
     1 KEK         1 TEMP              0 ****  ****    0 ROOT
