@<TRIPOS>MOLECULE
KEL
   38    38     1     0     0
SMALL
bcc


@<TRIPOS>ATOM
      1 O21          0.0000     0.0000     0.0000 o          1 KEL      -0.571100
      2 C18          1.2130     0.0000     0.0000 c          1 KEL       0.556100
      3 N19          1.8870     0.0000     1.1670 ns         1 KEL      -0.078400
      4 O20          1.1780     0.0020     2.3940 oh         1 KEL      -0.438100
      5 C17          1.9660    -0.0090    -1.3060 c3         1 KEL      -0.101400
      6 C8           0.9770    -0.1380    -2.4650 c3         1 KEL      -0.094700
      7 C9          -0.0360     0.9750    -2.3870 c          1 KEL       0.562100
      8 O16         -1.2150     0.7150    -2.2720 o          1 KEL      -0.660100
      9 N10          0.3680     2.2600    -2.4450 ns         1 KEL      -0.153900
     10 C11         -0.6160     3.3420    -2.3690 c3         1 KEL      -0.096300
     11 C15         -0.9170     3.6560    -0.9030 c3         1 KEL      -0.001100
     12 C12         -0.0650     4.5710    -3.0440 c          1 KEL       0.976600
     13 O14          1.0390     4.5460    -3.5380 o          1 KEL      -0.894800
     14 O13         -0.7980     5.6940    -3.0970 o          1 KEL      -0.894800
     15 C16          0.2600    -1.4870    -2.3760 c3         1 KEL       0.013900
     16 C23          1.2570    -2.6000    -2.5760 ca         1 KEL      -0.070300
     17 C24          1.9040    -3.1500    -1.4860 ca         1 KEL      -0.106000
     18 C19          2.8190    -4.1710    -1.6680 ca         1 KEL      -0.106000
     19 C20          3.0860    -4.6400    -2.9410 ca         1 KEL      -0.121000
     20 C21          2.4380    -4.0890    -4.0310 ca         1 KEL      -0.106000
     21 C22          1.5190    -3.0720    -3.8480 ca         1 KEL      -0.106000
     22 HN19         2.8870    -0.0070     1.1670 hn         1 KEL       0.149500
     23 HO20         1.7900     0.0420     3.1100 ho         1 KEL       0.382000
     24 H171         2.6520    -0.8470    -1.3210 hc         1 KEL       0.034200
     25 H172         2.5230     0.9150    -1.4070 hc         1 KEL       0.034200
     26 H8           1.5120    -0.0750    -3.4050 hc         1 KEL       0.034700
     27 HN10         1.3350     2.4730    -2.5910 hn         1 KEL       0.183500
     28 H11         -1.5280     3.0350    -2.8670 h1         1 KEL       0.052700
     29 H151        -1.7460     3.0450    -0.5660 hc         1 KEL       0.002700
     30 H152        -1.1760     4.7030    -0.8040 hc         1 KEL       0.002700
     31 H153        -0.0420     3.4420    -0.3010 hc         1 KEL       0.002700
     32 H161        -0.2020    -1.5870    -1.4020 hc         1 KEL       0.054200
     33 H162        -0.5020    -1.5430    -3.1440 hc         1 KEL       0.054200
     34 H24          1.6950    -2.7820    -0.4890 ha         1 KEL       0.110500
     35 H19          3.3270    -4.6030    -0.8140 ha         1 KEL       0.095000
     36 H20          3.8040    -5.4380    -3.0840 ha         1 KEL       0.094000
     37 H21          2.6450    -4.4580    -5.0280 ha         1 KEL       0.095000
     38 H22          1.0110    -2.6410    -4.7020 ha         1 KEL       0.110500
@<TRIPOS>BOND
     1     1     2 2   
     2     2     3 1   
     3     2     5 1   
     4     3     4 1   
     5     3    22 1   
     6     4    23 1   
     7     5     6 1   
     8     5    24 1   
     9     5    25 1   
    10     6     7 1   
    11     6    15 1   
    12     6    26 1   
    13     7     8 2   
    14     7     9 1   
    15     9    10 1   
    16     9    27 1   
    17    10    11 1   
    18    10    12 1   
    19    10    28 1   
    20    11    29 1   
    21    11    30 1   
    22    11    31 1   
    23    12    13 1   
    24    12    14 1   
    25    15    16 1   
    26    15    32 1   
    27    15    33 1   
    28    16    17 ar  
    29    16    21 ar  
    30    17    18 ar  
    31    17    34 1   
    32    18    19 ar  
    33    18    35 1   
    34    19    20 ar  
    35    19    36 1   
    36    20    21 ar  
    37    20    37 1   
    38    21    38 1   
@<TRIPOS>SUBSTRUCTURE
     1 KEL         1 TEMP              0 ****  ****    0 ROOT
