@<TRIPOS>MOLECULE
molecule
   38    38     1     0     0
SMALL
bcc


@<TRIPOS>ATOM
      1 O21          0.0000     0.0000     0.0000 o          1 KEL      -0.536100
      2 C18          1.2130     0.0000     0.0000 c          1 KEL       0.658100
      3 N19          1.8870     0.0000     1.1670 ns         1 KEL      -0.483400
      4 O20          1.1780     0.0020     2.3940 oh         1 KEL      -0.365100
      5 C17          1.9660    -0.0090    -1.3060 c3         1 KEL      -0.144400
      6 C8           0.9770    -0.1380    -2.4650 c3         1 KEL      -0.125700
      7 C9          -0.0360     0.9750    -2.3870 c          1 KEL       0.655100
      8 O16         -1.2150     0.7150    -2.2720 o          1 KEL      -0.616100
      9 N10          0.3680     2.2600    -2.4450 ns         1 KEL      -0.550900
     10 C11         -0.6160     3.3420    -2.3690 c3         1 KEL       0.005700
     11 C15         -0.9170     3.6560    -0.9030 c3         1 KEL      -0.088100
     12 C12         -0.0650     4.5710    -3.0440 c          1 KEL       0.887600
     13 O14          1.0390     4.5460    -3.5380 o          1 KEL      -0.848300
     14 O13         -0.7980     5.6940    -3.0970 o          1 KEL      -0.848300
     15 C16          0.2600    -1.4870    -2.3760 c3         1 KEL      -0.032100
     16 C23          1.2570    -2.6000    -2.5760 ca         1 KEL      -0.073300
     17 C24          1.9040    -3.1500    -1.4860 ca         1 KEL      -0.130000
     18 C19          2.8190    -4.1710    -1.6680 ca         1 KEL      -0.132500
     19 C20          3.0860    -4.6400    -2.9410 ca         1 KEL      -0.144000
     20 C21          2.4380    -4.0890    -4.0310 ca         1 KEL      -0.132500
     21 C22          1.5190    -3.0720    -3.8480 ca         1 KEL      -0.130000
     22 HN19         2.8870    -0.0070     1.1670 hn         1 KEL       0.310500
     23 HO20         1.7900     0.0420     3.1100 ho         1 KEL       0.388000
     24 H171         2.6520    -0.8470    -1.3210 hc         1 KEL       0.064700
     25 H172         2.5230     0.9150    -1.4070 hc         1 KEL       0.064700
     26 H8           1.5120    -0.0750    -3.4050 hc         1 KEL       0.067700
     27 HN10         1.3350     2.4730    -2.5910 hn         1 KEL       0.319500
     28 H11         -1.5280     3.0350    -2.8670 h1         1 KEL       0.071700
     29 H151        -1.7460     3.0450    -0.5660 hc         1 KEL       0.031367
     30 H152        -1.1760     4.7030    -0.8040 hc         1 KEL       0.031367
     31 H153        -0.0420     3.4420    -0.3010 hc         1 KEL       0.031367
     32 H161        -0.2020    -1.5870    -1.4020 hc         1 KEL       0.081200
     33 H162        -0.5020    -1.5430    -3.1440 hc         1 KEL       0.081200
     34 H24          1.6950    -2.7820    -0.4890 ha         1 KEL       0.135000
     35 H19          3.3270    -4.6030    -0.8140 ha         1 KEL       0.121000
     36 H20          3.8040    -5.4380    -3.0840 ha         1 KEL       0.118000
     37 H21          2.6450    -4.4580    -5.0280 ha         1 KEL       0.121000
     38 H22          1.0110    -2.6410    -4.7020 ha         1 KEL       0.135000
@<TRIPOS>BOND
     1    13    12 1
     2    12    10 1
     3    12    14 1
     4     8     7 2
     5    10    11 1
     6    10     9 1
     7     7     9 1
     8     7     6 1
     9     5     6 1
    10     5     2 1
    11     6    15 1
    12    21    20 ar
    13    21    16 ar
    14    15    16 1
    15     3     2 1
    16     3     4 1
    17     2     1 2
    18    20    19 ar
    19    16    17 ar
    20    19    18 ar
    21    17    18 ar
    22     3    22 1
    23     4    23 1
    24     5    24 1
    25     5    25 1
    26     6    26 1
    27     9    27 1
    28    10    28 1
    29    11    29 1
    30    11    30 1
    31    11    31 1
    32    15    32 1
    33    15    33 1
    34    17    34 1
    35    18    35 1
    36    19    36 1
    37    20    37 1
    38    21    38 1
@<TRIPOS>SUBSTRUCTURE
     1 KEL         1 TEMP              0 ****  ****    0 ROOT
