@<TRIPOS>MOLECULE
molecule
   50    51     1     0     0
SMALL
bcc


@<TRIPOS>ATOM
      1 C01          0.0000     0.0000     0.0000 c3         1 KEM      -0.076100
      2 C02          1.5300     0.0000     0.0000 c3         1 KEM      -0.132500
      3 C03          2.0320     0.0000     1.4210 c2         1 KEM      -0.171200
      4 C04          2.8010    -1.0040     1.8580 ce         1 KEM      -0.201200
      5 C05          3.2890    -1.0040     3.2390 c          1 KEM       0.437300
      6 O06          2.9950    -0.0940     3.9870 o          1 KEM      -0.552100
      7 C07          4.1480    -2.1250     3.7270 c          1 KEM       0.844600
      8 O08          4.5560    -2.1260     4.8780 o          1 KEM      -0.811300
      9 O09          4.4450    -3.0400     2.9750 o          1 KEM      -0.811300
     10 C10          2.0320     1.2310    -0.7090 c          1 KEM       0.571100
     11 O11          2.3190     2.2190    -0.0760 o          1 KEM      -0.521100
     12 C12          2.1760     1.2300    -2.2090 c3         1 KEM      -0.192400
     13 C13          2.7000     2.5910    -2.6720 c3         1 KEM      -0.067400
     14 C14          2.8460     2.5900    -4.1950 c3         1 KEM      -0.162700
     15 C15          3.5170     3.8690    -4.6300 c3         1 KEM      -0.053700
     16 C16          3.9870     3.8390    -6.0950 c3         1 KEM      -0.079400
     17 C17          4.2380     5.3310    -6.4180 c3         1 KEM      -0.112400
     18 C18          3.3890     6.1450    -5.4230 c3         1 KEM       0.145100
     19 O19          4.2370     6.9350    -4.5850 oh         1 KEM      -0.597800
     20 C20          2.6080     5.1080    -4.5690 c3         1 KEM      -0.057000
     21 C21          2.3950     5.5900    -3.1320 c3         1 KEM      -0.068100
     22 C22          1.2870     4.8610    -5.3000 c3         1 KEM      -0.065400
     23 C23          0.5540     3.6540    -4.7150 c3         1 KEM      -0.181400
     24 C24          1.4790     2.4590    -4.8260 c          1 KEM       0.578100
     25 O25          1.1400     1.4480    -5.3920 o          1 KEM      -0.529100
     26 H011        -0.3610    -0.7440     0.7000 hc         1 KEM       0.036700
     27 H012        -0.3610     0.9780     0.2950 hc         1 KEM       0.036700
     28 H013        -0.3610    -0.2340    -0.9940 hc         1 KEM       0.036700
     29 H02          1.8910    -0.8840    -0.5110 hc         1 KEM       0.066700
     30 H03          1.7700     0.8120     2.0880 ha         1 KEM       0.153000
     31 H04          3.0630    -1.8160     1.1910 ha         1 KEM       0.141000
     32 H121         2.8730     0.4550    -2.5050 hc         1 KEM       0.067700
     33 H122         1.2110     1.0410    -2.6650 hc         1 KEM       0.067700
     34 H131         3.6640     2.7800    -2.2170 hc         1 KEM       0.064700
     35 H132         2.0020     3.3660    -2.3770 hc         1 KEM       0.064700
     36 H14          3.4580     1.7490    -4.4980 hc         1 KEM       0.077700
     37 H15          4.3780     4.0400    -3.9940 hc         1 KEM       0.074700
     38 H161         4.9030     3.2700    -6.1900 hc         1 KEM       0.048700
     39 H162         3.2110     3.4370    -6.7360 hc         1 KEM       0.048700
     40 H171         3.9280     5.5480    -7.4330 hc         1 KEM       0.048700
     41 H172         5.2880     5.5660    -6.2870 hc         1 KEM       0.048700
     42 H18          2.6950     6.7790    -5.9610 h1         1 KEM       0.029700
     43 H19          4.3510     7.7880    -4.9690 ho         1 KEM       0.396000
     44 H211         3.2590     5.3300    -2.5320 hc         1 KEM       0.043700
     45 H212         2.2630     6.6650    -3.1270 hc         1 KEM       0.043700
     46 H213         1.5130     5.1160    -2.7190 hc         1 KEM       0.043700
     47 H221         1.4900     4.6780    -6.3480 hc         1 KEM       0.045200
     48 H222         0.6580     5.7380    -5.2020 hc         1 KEM       0.045200
     49 H231        -0.3530     3.4690    -5.2770 hc         1 KEM       0.068700
     50 H232         0.3180     3.8390    -3.6740 hc         1 KEM       0.068700
@<TRIPOS>BOND
     1     1     2 1
     2     2     3 1
     3     2    10 1
     4     3     4 2
     5     4     5 1
     6     5     6 2
     7     5     7 1
     8     7     8 1
     9     7     9 1
    10    10    11 2
    11    10    12 1
    12    12    13 1
    13    13    14 1
    14    14    15 1
    15    14    24 1
    16    15    16 1
    17    15    20 1
    18    16    17 1
    19    17    18 1
    20    18    19 1
    21    18    20 1
    22    20    21 1
    23    20    22 1
    24    22    23 1
    25    23    24 1
    26    24    25 2
    27     1    26 1
    28     1    27 1
    29     1    28 1
    30     2    29 1
    31     3    30 1
    32     4    31 1
    33    12    32 1
    34    12    33 1
    35    13    34 1
    36    13    35 1
    37    14    36 1
    38    15    37 1
    39    16    38 1
    40    16    39 1
    41    17    40 1
    42    17    41 1
    43    18    42 1
    44    19    43 1
    45    21    44 1
    46    21    45 1
    47    21    46 1
    48    22    47 1
    49    22    48 1
    50    23    49 1
    51    23    50 1
@<TRIPOS>SUBSTRUCTURE
     1 KEM         1 TEMP              0 ****  ****    0 ROOT
