@<TRIPOS>MOLECULE
KEM
   50    51     1     0     0
SMALL
bcc


@<TRIPOS>ATOM
      1 C01         0.7310   -1.1120    0.8100 c3        1 KEM     -0.078100
      2 C02         1.5270   -0.0060    0.1460 c3        1 KEM     -0.159500
      3 C03         2.0050    0.9810    1.1550 c2        1 KEM     -0.135200
      4 C04         3.0720    1.7730    1.0380 ce        1 KEM     -0.220200
      5 C05         3.9970    1.8670   -0.1140 c         1 KEM      0.460300
      6 O06         4.1360    2.9460   -0.7100 o         1 KEM     -0.605100
      7 C07         4.7810    0.5990   -0.5060 c         1 KEM      0.861600
      8 O08         5.8290    0.3430    0.1320 o         1 KEM     -0.804300
      9 O09         4.2900   -0.0870   -1.4470 o         1 KEM     -0.804300
     10 C10         0.6810    0.6840   -0.9090 c         1 KEM      0.590100
     11 O11        -0.4740    1.0660   -0.6870 o         1 KEM     -0.571100
     12 C12         1.3540    0.8410   -2.2400 c3        1 KEM     -0.202400
     13 C13         0.7900    1.9880   -3.0490 c3        1 KEM     -0.059400
     14 C14         1.6730    2.3020   -4.2530 c3        1 KEM     -0.148700
     15 C15         2.9200    3.0820   -3.8600 c3        1 KEM     -0.067700
     16 C16         4.0760    2.8210   -4.8290 c3        1 KEM     -0.081400
     17 C17         5.0100    4.0150   -4.7160 c3        1 KEM     -0.114400
     18 C18         4.2680    5.1070   -3.9310 c3        1 KEM      0.154100
     19 O19         4.8970    5.3720   -2.6960 oh        1 KEM     -0.612800
     20 C20         2.7960    4.6160   -3.7730 c3        1 KEM     -0.079000
     21 C21         2.2270    5.0840   -2.4490 c3        1 KEM     -0.092100
     22 C22         1.9820    5.1830   -4.9320 c3        1 KEM     -0.058400
     23 C23         0.6530    4.4840   -5.1110 c3        1 KEM     -0.179400
     24 C24         0.8500    3.0080   -5.3020 c         1 KEM      0.581100
     25 O25         0.3480    2.4050   -6.2590 o         1 KEM     -0.558100
     26 H011       -0.2140   -0.7080    1.2470 hc        1 KEM      0.034033
     27 H012        0.4690   -1.8970    0.0610 hc        1 KEM      0.034033
     28 H013        1.3340   -1.5820    1.6220 hc        1 KEM      0.034033
     29 H02         2.4330   -0.4640   -0.3660 hc        1 KEM      0.135700
     30 H03         1.3960    1.0200    2.0750 ha        1 KEM      0.109000
     31 H04         3.3450    2.4510    1.8670 ha        1 KEM      0.127000
     32 H121        2.4670    0.9700   -2.0760 hc        1 KEM      0.101200
     33 H122        1.2320   -0.1260   -2.7990 hc        1 KEM      0.101200
     34 H131        0.7000    2.8970   -2.3970 hc        1 KEM      0.049200
     35 H132       -0.2440    1.7230   -3.3960 hc        1 KEM      0.049200
     36 H14         2.0150    1.3170   -4.6920 hc        1 KEM      0.080700
     37 H15         3.2470    2.7200   -2.8380 hc        1 KEM      0.102700
     38 H161        4.5960    1.8680   -4.5620 hc        1 KEM      0.048700
     39 H162        3.6920    2.7220   -5.8760 hc        1 KEM      0.048700
     40 H171        5.9500    3.7370   -4.1760 hc        1 KEM      0.048200
     41 H172        5.2960    4.3940   -5.7270 hc        1 KEM      0.048200
     42 H18         4.3000    6.0950   -4.4670 h1        1 KEM      0.054700
     43 H19         4.8310    4.5710   -2.1510 ho        1 KEM      0.438000
     44 H211        2.4710    6.1630   -2.2960 hc        1 KEM      0.045367
     45 H212        2.6700    4.5010   -1.6020 hc        1 KEM      0.045367
     46 H213        1.1180    4.9620   -2.4240 hc        1 KEM      0.045367
     47 H221        2.5770    5.0830   -5.8800 hc        1 KEM      0.039700
     48 H222        1.8030    6.2760   -4.7570 hc        1 KEM      0.039700
     49 H231        0.1110    4.9170   -5.9920 hc        1 KEM      0.061700
     50 H232        0.0080    4.6300   -4.2040 hc        1 KEM      0.061700
@<TRIPOS>BOND
     1    1    2 1   
     2    1   26 1   
     3    1   27 1   
     4    1   28 1   
     5    2    3 1   
     6    2   10 1   
     7    2   29 1   
     8    3    4 2   
     9    3   30 1   
    10    4    5 1   
    11    4   31 1   
    12    5    6 2   
    13    5    7 1   
    14    7    8 1   
    15    7    9 1   
    16   10   11 2   
    17   10   12 1   
    18   12   13 1   
    19   12   32 1   
    20   12   33 1   
    21   13   14 1   
    22   13   34 1   
    23   13   35 1   
    24   14   15 1   
    25   14   24 1   
    26   14   36 1   
    27   15   16 1   
    28   15   20 1   
    29   15   37 1   
    30   16   17 1   
    31   16   38 1   
    32   16   39 1   
    33   17   18 1   
    34   17   40 1   
    35   17   41 1   
    36   18   19 1   
    37   18   20 1   
    38   18   42 1   
    39   19   43 1   
    40   20   21 1   
    41   20   22 1   
    42   21   44 1   
    43   21   45 1   
    44   21   46 1   
    45   22   23 1   
    46   22   47 1   
    47   22   48 1   
    48   23   24 1   
    49   23   49 1   
    50   23   50 1   
    51   24   25 2   
@<TRIPOS>SUBSTRUCTURE
     1 KEM         1 TEMP              0 ****  ****    0 ROOT
