@<TRIPOS>MOLECULE
KEN
   13    12     1     0     0
SMALL
bcc


@<TRIPOS>ATOM
      1 CA1          0.0000     0.0000     0.0000 c3         1 KEN       0.186100
      2 CB1          1.9960     0.0000     1.3710 c3         1 KEN       0.186100
      3 CC1          1.9950    -1.1370    -0.7660 c3         1 KEN       0.186100
      4 NE1          1.4690     0.0000     0.0000 n3         1 KEN      -0.550600
      5 HA1         -0.3610     0.0360    -1.0210 h1         1 KEN      -0.000967
      6 HA1A        -0.3610     0.8660     0.5410 h1         1 KEN      -0.000967
      7 HA1B        -0.3610    -0.9020     0.4800 h1         1 KEN      -0.000967
      8 HB1          3.0780     0.0360     1.3420 h1         1 KEN      -0.000967
      9 HB1A         1.6780    -0.9020     1.8800 h1         1 KEN      -0.000967
     10 HB1B         1.6210     0.8660     1.9020 h1         1 KEN      -0.000967
     11 HC1          1.6770    -2.0630    -0.3030 h1         1 KEN      -0.000967
     12 HC1A         3.0780    -1.0930    -0.7800 h1         1 KEN      -0.000967
     13 HC1B         1.6200    -1.0930    -1.7810 h1         1 KEN      -0.000967
@<TRIPOS>BOND
     1     1     4 1   
     2     1     5 1   
     3     1     6 1   
     4     1     7 1   
     5     2     4 1   
     6     2     8 1   
     7     2     9 1   
     8     2    10 1   
     9     3     4 1   
    10     3    11 1   
    11     3    12 1   
    12     3    13 1   
@<TRIPOS>SUBSTRUCTURE
     1 KEN         1 TEMP              0 ****  ****    0 ROOT
