@<TRIPOS>MOLECULE
molecule
   36    36     1     0     0
SMALL
bcc


@<TRIPOS>ATOM
      1 N1           0.0000     0.0000     0.0000 na         1 KET      -0.137100
      2 C2           1.3490     0.0000     0.0000 ca         1 KET      -0.094600
      3 C2A          2.0740     0.0240    -1.3220 c3         1 KET      -0.036800
      4 C3           2.0010     0.0000     1.2510 ca         1 KET       0.069100
      5 O3           3.3530     0.0250     1.2100 oh         1 KET      -0.464100
      6 C4           1.2870     0.0060     2.4340 ca         1 KET       0.044100
      7 C4A          1.9830     0.0100     3.6970 ce         1 KET       0.314800
      8 C5          -0.1310     0.0320     2.3270 ca         1 KET      -0.067300
      9 C6          -0.7450    -0.0040     1.1110 ca         1 KET      -0.114300
     10 C5A         -1.0230    -0.0830     3.5990 c3         1 KET       0.267700
     11 OP4         -0.9170     1.0440     4.4610 os         1 KET      -0.575200
     12 P           -1.9710     1.2680     5.6350 p5         1 KET       1.326900
     13 OP1         -2.5740     2.6090     5.4810 o          1 KET      -0.941833
     14 OP2         -1.1860     1.2170     6.9790 o          1 KET      -0.941833
     15 OP3         -2.8680     0.1220     5.5050 o          1 KET      -0.941833
     16 N            3.1560    -0.5030     3.6930 n2         1 KET      -0.463900
     17 CA           3.7050    -1.1630     4.7080 c3         1 KET       0.004500
     18 CB           3.0060    -1.4090     6.0590 c3         1 KET      -0.203400
     19 CG           2.3660    -2.7660     6.1380 c          1 KET       0.904600
     20 OD1          2.8750    -3.7600     5.6560 o          1 KET      -0.840300
     21 OD2          1.2320    -2.7720     6.7980 o          1 KET      -0.840300
     22 C            5.1180    -1.8090     4.6280 c          1 KET       0.967600
     23 O            5.5460    -2.2890     3.5950 o          1 KET      -0.824800
     24 OXT          5.7910    -1.8320     5.7560 o          1 KET      -0.824800
     25 HN1         -0.4710    -0.0260    -0.8830 hn         1 KET       0.262700
     26 H2A1         2.8360    -0.7460    -1.3300 hc         1 KET       0.045700
     27 H2A2         2.5370     0.9930    -1.4620 hc         1 KET       0.045700
     28 H2A3         1.3680    -0.1580    -2.1240 hc         1 KET       0.045700
     29 HO3          3.6500     0.9200     1.1970 ho         1 KET       0.406000
     30 H4A          1.3850    -0.0740     4.5960 h4         1 KET       0.074800
     31 H6          -1.8260     0.0070     1.0440 h4         1 KET       0.179000
     32 H5A1        -2.0560    -0.1880     3.2900 h1         1 KET       0.053200
     33 H5A2        -0.7320    -0.9700     4.1480 h1         1 KET       0.053200
     34 HA           4.1240    -0.2310     5.0710 h1         1 KET       0.114700
     35 HB1          2.2430    -0.6540     6.2010 hc         1 KET       0.065200
     36 HB2          3.7370    -1.3210     6.8530 hc         1 KET       0.065200
@<TRIPOS>BOND
     1     1     2 1
     2     1     9 2
     3     1    25 1
     4     2     3 1
     5     2     4 ar
     6     3    26 1
     7     3    27 1
     8     3    28 1
     9     4     5 1
    10     4     6 ar
    11     5    29 1
    12     6     7 1
    13     6     8 ar
    14     7    16 2
    15     7    30 1
    16     8     9 ar
    17     8    10 1
    18     9    31 1
    19    10    11 1
    20    10    32 1
    21    10    33 1
    22    11    12 1
    23    12    13 1
    24    12    14 1
    25    12    15 1
    26    16    17 1
    27    17    18 1
    28    17    22 1
    29    17    34 1
    30    18    19 1
    31    18    35 1
    32    18    36 1
    33    19    20 1
    34    19    21 1
    35    22    23 1
    36    22    24 1
@<TRIPOS>SUBSTRUCTURE
     1 KET         1 TEMP              0 ****  ****    0 ROOT
