@<TRIPOS>MOLECULE
molecule
   68    69     1     0     0
SMALL
bcc


@<TRIPOS>ATOM
      1 O4           0.0000     0.0000     0.0000 o          1 KEU      -0.680800
      2 C21          1.3420     0.0000     0.0000 c          1 KEU       0.882600
      3 O5           1.9450     0.0000     1.0460 o          1 KEU      -0.680800
      4 C20          2.0950     0.0010    -1.3050 c3         1 KEU      -0.136400
      5 C19          3.5980     0.0010    -1.0270 c3         1 KEU      -0.076400
      6 C17          4.3630     0.0010    -2.3510 c3         1 KEU       0.058700
      7 N            4.0090    -1.1950    -3.1200 ns         1 KEU      -0.530900
      8 C            4.0290    -1.1610    -4.4670 c          1 KEU       0.666700
      9 O            4.3430    -0.1380    -5.0440 o          1 KEU      -0.592100
     10 C14          3.6720    -2.3680    -5.2430 ca         1 KEU      -0.117600
     11 C13          3.6950    -2.3360    -6.6370 ca         1 KEU      -0.082000
     12 C12          3.3610    -3.4660    -7.3560 ca         1 KEU      -0.119000
     13 C11          3.0050    -4.6280    -6.6950 ca         1 KEU      -0.105300
     14 C16          2.9770    -4.6640    -5.3130 ca         1 KEU      -0.119000
     15 C15          3.3130    -3.5440    -4.5840 ca         1 KEU      -0.082000
     16 C10          2.6400    -5.8580    -7.4860 c3         1 KEU       0.007600
     17 C1           3.4400    -7.0530    -6.9670 c3         1 KEU      -0.066400
     18 C2           3.1910    -8.2640    -7.8680 c3         1 KEU      -0.097400
     19 C3           4.0920    -9.4200    -7.4300 c3         1 KEU      -0.085400
     20 C4           3.9160   -10.5970    -8.3920 c3         1 KEU      -0.139700
     21 C9           4.7030   -11.7800    -7.8930 c          1 KEU       0.685500
     22 O1           4.6470   -12.0760    -6.7180 o          1 KEU      -0.580500
     23 N3           5.4640   -12.5100    -8.7170 ns         1 KEU      -0.590900
     24 C8           5.6040   -12.2150   -10.1380 c3         1 KEU       0.454100
     25 N2           6.8540   -11.4750   -10.3550 nz         1 KEU      -0.911600
     26 N1           4.4780   -11.4110   -10.6190 n7         1 KEU      -0.759200
     27 C7           4.4280   -10.2050    -9.7800 c3         1 KEU       0.293700
     28 N8           5.7740    -9.6270    -9.6670 nz         1 KEU      -0.889600
     29 C5           1.1440    -6.1390    -7.3320 c3         1 KEU       0.312600
     30 OA2          0.7880    -7.2710    -8.1270 oh         1 KEU      -0.597300
     31 OA1          0.8500    -6.4080    -5.9590 oh         1 KEU      -0.597300
     32 C6           0.3450    -4.9190    -7.7940 c3         1 KEU       0.567900
     33 F2          -1.0200    -5.2220    -7.7770 f          1 KEU      -0.212967
     34 F1           0.5950    -3.8460    -6.9330 f          1 KEU      -0.212967
     35 F            0.7310    -4.5750    -9.0930 f          1 KEU      -0.212967
     36 C18          5.8450     0.0010    -2.0760 c          1 KEU       0.880600
     37 O3           6.5040    -1.1610    -1.9550 o          1 KEU      -0.658800
     38 O2           6.4390     1.0470    -1.9660 o          1 KEU      -0.658800
     39 H201         1.8330     0.8850    -1.8730 hc         1 KEU       0.060700
     40 H202         1.8330    -0.8840    -1.8730 hc         1 KEU       0.060700
     41 H191         3.8600    -0.8840    -0.4590 hc         1 KEU       0.083700
     42 H192         3.8600     0.8850    -0.4590 hc         1 KEU       0.083700
     43 H17          4.1010     0.8860    -2.9190 h1         1 KEU       0.111700
     44 HN           3.7990    -2.0510    -2.6450 hn         1 KEU       0.327500
     45 H13          3.9730    -1.4260    -7.1550 ha         1 KEU       0.153500
     46 H12          3.3790    -3.4440    -8.4380 ha         1 KEU       0.137000
     47 H16          2.6980    -5.5780    -4.8020 ha         1 KEU       0.137000
     48 H15          3.2910    -3.5740    -3.5010 ha         1 KEU       0.153500
     49 H10          2.8710    -5.6960    -8.5320 hc         1 KEU       0.075700
     50 H11          4.4960    -6.8100    -6.9720 hc         1 KEU       0.064200
     51 H12A         3.1280    -7.2850    -5.9560 hc         1 KEU       0.064200
     52 H21          3.4140    -8.0020    -8.8950 hc         1 KEU       0.056200
     53 H22          2.1540    -8.5650    -7.7890 hc         1 KEU       0.056200
     54 H31          5.1260    -9.0960    -7.4410 hc         1 KEU       0.063200
     55 H32          3.8210    -9.7290    -6.4280 hc         1 KEU       0.063200
     56 H4           2.8680   -10.8630    -8.4570 hc         1 KEU       0.130700
     57 HN3          5.9680   -13.2880    -8.3390 hn         1 KEU       0.349500
     58 H8           5.6360   -13.1460   -10.6910 hx         1 KEU       0.110700
     59 HN21         6.7130   -10.7820   -11.0630 hn         1 KEU       0.338800
     60 HN22         7.5700   -12.1100   -10.6480 hn         1 KEU       0.338800
     61 HN1          4.7110   -11.1970   -11.5680 hn         1 KEU       0.379800
     62 H7           3.7530    -9.4830   -10.2240 hx         1 KEU       0.119700
     63 HN61         6.2340    -9.6770   -10.5540 hn         1 KEU       0.361467
     64 HN62         5.7030    -8.6700    -9.3810 hn         1 KEU       0.361467
     65 HA2         -0.1510    -7.3200    -8.2000 ho         1 KEU       0.420500
     66 HA1         -0.0100    -6.7890    -5.8900 ho         1 KEU       0.420500
     67 H23          7.1300   -11.0290    -9.5030 hn         1 KEU       0.338800
     68 H83          6.2860   -10.1120    -8.9570 hn         1 KEU       0.361467
@<TRIPOS>BOND
     1     1     2 1
     2     2     3 1
     3     2     4 1
     4     4     5 1
     5     4    39 1
     6     4    40 1
     7     5     6 1
     8     5    41 1
     9     5    42 1
    10     6     7 1
    11     6    36 1
    12     6    43 1
    13     7     8 1
    14     7    44 1
    15     8     9 2
    16     8    10 1
    17    10    11 ar
    18    10    15 ar
    19    11    12 ar
    20    11    45 1
    21    12    13 ar
    22    12    46 1
    23    13    14 ar
    24    13    16 1
    25    14    15 ar
    26    14    47 1
    27    15    48 1
    28    16    17 1
    29    16    29 1
    30    16    49 1
    31    17    18 1
    32    17    50 1
    33    17    51 1
    34    18    19 1
    35    18    52 1
    36    18    53 1
    37    19    20 1
    38    19    54 1
    39    19    55 1
    40    20    21 1
    41    20    27 1
    42    20    56 1
    43    21    22 2
    44    21    23 1
    45    23    24 1
    46    23    57 1
    47    24    25 1
    48    24    26 1
    49    24    58 1
    50    25    59 1
    51    25    60 1
    52    26    27 1
    53    26    61 1
    54    27    28 1
    55    27    62 1
    56    28    63 1
    57    28    64 1
    58    29    30 1
    59    29    31 1
    60    29    32 1
    61    30    65 1
    62    31    66 1
    63    32    33 1
    64    32    34 1
    65    32    35 1
    66    36    37 1
    67    36    38 1
    68    67    25 1
    69    68    28 1
@<TRIPOS>SUBSTRUCTURE
     1 KEU         1 TEMP              0 ****  ****    0 ROOT
