@<TRIPOS>MOLECULE
KEU
   66    67     1     0     0
SMALL
bcc


@<TRIPOS>ATOM
      1 O4          2.8120   -2.6320    0.3360 o         1 KEU     -0.873800
      2 C21         3.0260   -2.5300   -0.9080 c         1 KEU      0.909600
      3 O5          2.9240   -3.5280   -1.6910 o         1 KEU     -0.873800
      4 C20         3.3720   -1.1570   -1.4940 c3        1 KEU     -0.191400
      5 C19         4.8400   -1.0170   -1.8350 c3        1 KEU     -0.074400
      6 C17         5.1050   -0.3200   -3.1830 c3        1 KEU     -0.038300
      7 N           4.6560   -1.1160   -4.3110 n         1 KEU     -0.485900
      8 C           3.4060   -1.0180   -4.8560 c         1 KEU      0.658700
      9 O           2.7090    0.0230   -4.8600 o         1 KEU     -0.647100
     10 C14         2.9040   -2.2500   -5.5600 ca        1 KEU     -0.114600
     11 C13         2.7120   -2.2640   -6.9410 ca        1 KEU     -0.097000
     12 C12         2.2530   -3.4220   -7.5680 ca        1 KEU     -0.146500
     13 C11         1.9750   -4.5690   -6.8160 ca        1 KEU     -0.148300
     14 C16         2.1450   -4.5350   -5.4250 ca        1 KEU     -0.146500
     15 C15         2.6120   -3.3850   -4.7920 ca        1 KEU     -0.097000
     16 C10         1.5690   -5.8280   -7.5140 c3        1 KEU     -0.016400
     17 C1          2.2780   -7.0430   -6.9160 c3        1 KEU     -0.069400
     18 C2          2.7110   -8.0200   -7.9900 c3        1 KEU     -0.081400
     19 C3          3.3590   -9.2460   -7.3790 c3        1 KEU     -0.082400
     20 C4          4.1690  -10.0210   -8.4020 c3        1 KEU     -0.146700
     21 C9          4.4410  -11.4410   -7.9330 c         1 KEU      0.690500
     22 O1          3.6900  -12.0410   -7.1370 o         1 KEU     -0.645500
     23 N3          5.4980  -12.1390   -8.4960 n         1 KEU     -0.559900
     24 C8          6.6040  -11.4860   -9.2080 c3        1 KEU      0.553100
     25 N2          7.8650  -11.5480   -8.4310 n3        1 KEU     -0.965800
     26 N1          6.2130  -10.1620   -9.7570 n3        1 KEU     -0.834200
     27 C7          5.4980   -9.3070   -8.7970 c3        1 KEU      0.390700
     28 N8          6.3230   -8.8880   -7.6650 n3        1 KEU     -0.959800
     29 C5          0.0400   -6.0330   -7.4840 c3        1 KEU      0.356600
     30 OA2        -0.2720   -7.3430   -7.8840 oh        1 KEU     -0.605300
     31 OA1        -0.5860   -5.9200   -6.2390 oh        1 KEU     -0.605300
     32 C6         -0.7380   -5.0550   -8.4920 c3        1 KEU      0.564900
     33 F2         -1.8890   -5.6310   -8.9730 f         1 KEU     -0.242300
     34 F1         -1.1520   -3.8810   -7.9260 f         1 KEU     -0.242300
     35 F          -0.0480   -4.6950   -9.6180 f         1 KEU     -0.242300
     36 C18         6.6440   -0.0360   -3.2850 c         1 KEU      0.918600
     37 O3          7.0300    1.1170   -2.9450 o         1 KEU     -0.849800
     38 O2          7.4140   -0.9540   -3.6860 o         1 KEU     -0.849800
     39 H201        2.7360   -1.0050   -2.4040 hc        1 KEU      0.023700
     40 H202        3.0830   -0.3690   -0.7520 hc        1 KEU      0.023700
     41 H191        5.3270   -2.0280   -1.8450 hc        1 KEU      0.047200
     42 H192        5.3580   -0.4080   -1.0500 hc        1 KEU      0.047200
     43 H17         4.5590    0.6650   -3.2090 h1        1 KEU      0.066700
     44 HN          5.1280   -1.9930   -4.3820 hn        1 KEU      0.311500
     45 H13         2.9240   -1.3600   -7.5310 ha        1 KEU      0.194500
     46 H12         2.1040   -3.4340   -8.6580 ha        1 KEU      0.126500
     47 H16         1.9290   -5.4280   -4.8170 ha        1 KEU      0.126500
     48 H15         2.7550   -3.3650   -3.6800 ha        1 KEU      0.194500
     49 H10         1.8500   -5.7450   -8.6040 hc        1 KEU      0.074700
     50 H11         3.1820   -6.7000   -6.3450 hc        1 KEU      0.063700
     51 H12A        1.5950   -7.5560   -6.1890 hc        1 KEU      0.063700
     52 H21         1.8180   -8.3280   -8.5970 hc        1 KEU      0.044700
     53 H22         3.4280   -7.5080   -8.6850 hc        1 KEU      0.044700
     54 H31         3.9930   -8.9510   -6.5030 hc        1 KEU      0.063700
     55 H32         2.5580   -9.9230   -6.9720 hc        1 KEU      0.063700
     56 H4          3.5470  -10.1190   -9.3400 hc        1 KEU      0.095700
     57 HN3         5.7100  -13.0350   -8.1170 hn        1 KEU      0.321500
     58 H8          6.8020  -12.1330  -10.1310 h3        1 KEU      0.073700
     59 HN21        8.6070  -11.1140   -8.9410 hn        1 KEU      0.362800
     60 HN22        7.7920  -11.1240   -7.5290 hn        1 KEU      0.362800
     61 HN1         7.0260   -9.6900  -10.1090 hn        1 KEU      0.375800
     62 H7          5.2150   -8.3750   -9.3830 h2        1 KEU      0.077700
     63 HN61        6.2000   -9.4850   -6.8730 hn        1 KEU      0.370300
     64 HN62        6.1190   -7.9440   -7.4050 hn        1 KEU      0.370300
     65 HA2        -1.1470   -7.5620   -7.5290 ho        1 KEU      0.451500
     66 HA1        -0.1620   -5.2080   -5.7320 ho        1 KEU      0.451500
@<TRIPOS>BOND
     1    1    2 1   
     2    2    3 1   
     3    2    4 1   
     4    4    5 1   
     5    4   39 1   
     6    4   40 1   
     7    5    6 1   
     8    5   41 1   
     9    5   42 1   
    10    6    7 1   
    11    6   36 1   
    12    6   43 1   
    13    7    8 1   
    14    7   44 1   
    15    8    9 2   
    16    8   10 1   
    17   10   11 ar  
    18   10   15 ar  
    19   11   12 ar  
    20   11   45 1   
    21   12   13 ar  
    22   12   46 1   
    23   13   14 ar  
    24   13   16 1   
    25   14   15 ar  
    26   14   47 1   
    27   15   48 1   
    28   16   17 1   
    29   16   29 1   
    30   16   49 1   
    31   17   18 1   
    32   17   50 1   
    33   17   51 1   
    34   18   19 1   
    35   18   52 1   
    36   18   53 1   
    37   19   20 1   
    38   19   54 1   
    39   19   55 1   
    40   20   21 1   
    41   20   27 1   
    42   20   56 1   
    43   21   22 2   
    44   21   23 1   
    45   23   24 1   
    46   23   57 1   
    47   24   25 1   
    48   24   26 1   
    49   24   58 1   
    50   25   59 1   
    51   25   60 1   
    52   26   27 1   
    53   26   61 1   
    54   27   28 1   
    55   27   62 1   
    56   28   63 1   
    57   28   64 1   
    58   29   30 1   
    59   29   31 1   
    60   29   32 1   
    61   30   65 1   
    62   31   66 1   
    63   32   33 1   
    64   32   34 1   
    65   32   35 1   
    66   36   37 1   
    67   36   38 1   
@<TRIPOS>SUBSTRUCTURE
     1 KEU         1 TEMP              0 ****  ****    0 ROOT
