@<TRIPOS>MOLECULE
KFK
   62    65     1     0     0
SMALL
bcc


@<TRIPOS>ATOM
      1 FAY          0.0000     0.0000     0.0000 f          1 KFK      -0.116900
      2 CAN          1.3510     0.0000     0.0000 ca         1 KFK       0.086900
      3 CAM          2.0420     0.0000     1.2010 ca         1 KFK       0.053900
      4 FAX          1.3650    -0.0000     2.3700 f          1 KFK      -0.111900
      5 CAO          2.0410    -0.0060    -1.2020 ca         1 KFK      -0.122000
      6 CAP          3.4220    -0.0070    -1.2110 ca         1 KFK      -0.071000
      7 CAQ          4.1250    -0.0020    -0.0080 cp         1 KFK      -0.032000
      8 CAI          3.4290    -0.0010     1.2040 ca         1 KFK       0.125100
      9 OAH          4.1080     0.0050     2.3810 os         1 KFK      -0.324900
     10 CAG          4.3360    -1.2610     3.0040 c3         1 KFK       0.208400
     11 CAF          5.0310    -1.0490     4.3500 c3         1 KFK       0.073900
     12 CAD          5.2710    -2.3830     5.0080 cc         1 KFK      -0.325600
     13 CAE          6.4100    -3.1820     4.8590 cc         1 KFK       0.375600
     14 CAL          7.6110    -2.8570     4.0090 c3         1 KFK      -0.008400
     15 NAA          6.2500    -4.2600     5.5830 nd         1 KFK      -0.652800
     16 NAB          5.0040    -4.1820     6.2170 na         1 KFK       0.492400
     17 CAK          4.4330    -5.1820     7.1220 c3         1 KFK       0.022600
     18 CAC          4.4250    -3.0180     5.8520 cd         1 KFK      -0.226600
     19 CAJ          3.0750    -2.5200     6.2980 c3         1 KFK       0.092200
     20 CAR          5.6090    -0.0040    -0.0150 cp         1 KFK      -0.086000
     21 CAW          6.3110     1.0000     0.6640 ca         1 KFK      -0.032000
     22 CAV          7.6740     1.0150     0.6690 ca         1 KFK      -0.122000
     23 CAU          8.3870     0.0250    -0.0050 ca         1 KFK      -0.161200
     24 NBB          9.7240    -0.2240    -0.1790 na         1 KFK       0.452900
     25 CBC         10.8170     0.5850     0.3660 c3         1 KFK       0.036600
     26 NBA          9.8780    -1.3740    -0.9600 nc         1 KFK      -0.597100
     27 CAZ          8.7100    -1.8560    -1.2820 cd         1 KFK       0.391900
     28 CAT          7.6930    -0.9910    -0.6920 ca         1 KFK      -0.258900
     29 CAS          6.2950    -1.0020    -0.6870 ca         1 KFK      -0.014000
     30 CBD          8.4560    -3.0850    -2.1150 c3         1 KFK       0.160500
     31 NBE          8.3780    -4.2630    -1.2410 n3         1 KFK      -0.536600
     32 CBF          7.2030    -4.1880    -0.3610 c3         1 KFK       0.176100
     33 CBG          8.3680    -5.5040    -2.0270 c3         1 KFK       0.176100
     34 H1           1.4950    -0.0100    -2.1380 ha         1 KFK       0.124000
     35 H2           3.9580    -0.0100    -2.1520 ha         1 KFK       0.118000
     36 H3           3.3880    -1.7610     3.1630 h1         1 KFK       0.001700
     37 H4           4.9630    -1.8710     2.3650 h1         1 KFK       0.001700
     38 H5           5.9790    -0.5490     4.1910 hc         1 KFK       0.024200
     39 H6           4.4040    -0.4390     4.9890 hc         1 KFK       0.024200
     40 H7           8.4010    -3.5710     4.2120 hc         1 KFK       0.012367
     41 H8           7.9580    -1.8580     4.2420 hc         1 KFK       0.012367
     42 H9           7.3380    -2.9100     2.9620 hc         1 KFK       0.012367
     43 H10          4.3120    -4.7500     8.1080 h1         1 KFK       0.021033
     44 H11          5.0960    -6.0370     7.1800 h1         1 KFK       0.021033
     45 H12          3.4670    -5.4990     6.7460 h1         1 KFK       0.021033
     46 H13          3.0870    -1.4370     6.3470 hc         1 KFK       0.014033
     47 H14          2.3200    -2.8410     5.5910 hc         1 KFK       0.014033
     48 H15          2.8470    -2.9220     7.2780 hc         1 KFK       0.014033
     49 H16          5.7650     1.7760     1.1860 ha         1 KFK       0.115000
     50 H17          8.2040     1.7970     1.1980 ha         1 KFK       0.108000
     51 H18         11.7660     0.1640     0.0580 h1         1 KFK       0.018033
     52 H19         10.7350     1.5990    -0.0040 h1         1 KFK       0.018033
     53 H20         10.7580     0.5890     1.4480 h1         1 KFK       0.018033
     54 H21          5.7570    -1.6990    -1.3180 ha         1 KFK       0.108000
     55 H22          9.2660    -3.2150    -2.8240 h1         1 KFK       0.017200
     56 H23          7.5220    -2.9710    -2.6520 h1         1 KFK       0.017200
     57 H25          7.3430    -3.3910     0.3600 h1         1 KFK       0.003033
     58 H26          7.0810    -5.1300     0.1600 h1         1 KFK       0.003033
     59 H27          6.3190    -3.9860    -0.9540 h1         1 KFK       0.003033
     60 H28          7.4810    -5.5320    -2.6470 h1         1 KFK       0.003033
     61 H29          8.3680    -6.3550    -1.3570 h1         1 KFK       0.003033
     62 H30          9.2500    -5.5390    -2.6560 h1         1 KFK       0.003033
@<TRIPOS>BOND
     1     1     2 1   
     2     2     3 ar  
     3     2     5 ar  
     4     3     4 1   
     5     3     8 ar  
     6     5     6 ar  
     7     5    34 1   
     8     6     7 ar  
     9     6    35 1   
    10     7     8 ar  
    11     7    20 1   
    12     8     9 1   
    13     9    10 1   
    14    10    11 1   
    15    10    36 1   
    16    10    37 1   
    17    11    12 1   
    18    11    38 1   
    19    11    39 1   
    20    12    13 1   
    21    12    18 2   
    22    13    14 1   
    23    13    15 2   
    24    14    40 1   
    25    14    41 1   
    26    14    42 1   
    27    15    16 1   
    28    16    17 1   
    29    16    18 1   
    30    17    43 1   
    31    17    44 1   
    32    17    45 1   
    33    18    19 1   
    34    19    46 1   
    35    19    47 1   
    36    19    48 1   
    37    20    21 ar  
    38    20    29 ar  
    39    21    22 ar  
    40    21    49 1   
    41    22    23 ar  
    42    22    50 1   
    43    23    24 1   
    44    23    28 ar  
    45    24    25 1   
    46    24    26 1   
    47    25    51 1   
    48    25    52 1   
    49    25    53 1   
    50    26    27 2   
    51    27    28 1   
    52    27    30 1   
    53    28    29 ar  
    54    29    54 1   
    55    30    31 1   
    56    30    55 1   
    57    30    56 1   
    58    31    32 1   
    59    31    33 1   
    60    32    57 1   
    61    32    58 1   
    62    32    59 1   
    63    33    60 1   
    64    33    61 1   
    65    33    62 1   
@<TRIPOS>SUBSTRUCTURE
     1 KFK         1 TEMP              0 ****  ****    0 ROOT
