@<TRIPOS>MOLECULE
molecule
   21    23     1     0     0
SMALL
bcc


@<TRIPOS>ATOM
      1 OAA          0.0000     0.0000     0.0000 o          1 KFQ      -0.576500
      2 CAJ          1.2180     0.0000     0.0000 c          1 KFQ       0.639000
      3 CAN          1.9560     0.0000     1.2670 cc         1 KFQ       0.313000
      4 NAG          1.5920     0.0010     2.5290 nd         1 KFQ      -0.261000
      5 NAH          2.6370     0.0000     3.2820 nd         1 KFQ      -0.360000
      6 CAK          3.7320    -0.0000     2.5410 cc         1 KFQ       0.512800
      7 SAB          5.3920    -0.0010     3.1280 sh         1 KFQ      -0.330100
      8 NAO          3.3360    -0.0010     1.2420 na         1 KFQ      -0.205800
      9 CAM          4.0100    -0.0010     0.0220 ca         1 KFQ      -0.047200
     10 CAF          5.3990     0.0030    -0.0080 ca         1 KFQ      -0.099000
     11 CAD          6.0640     0.0080    -1.2180 ca         1 KFQ      -0.135000
     12 CAC          5.3530     0.0090    -2.4040 ca         1 KFQ      -0.091000
     13 CAE          3.9720     0.0040    -2.3860 ca         1 KFQ      -0.158000
     14 CAL          3.2910    -0.0010    -1.1740 ca         1 KFQ       0.067600
     15 NAI          1.8970    -0.0060    -1.1640 ns         1 KFQ      -0.452100
     16 H2           5.9600     0.0030     0.9190 ha         1 KFQ       0.160000
     17 H3           7.1470     0.0120    -1.2380 ha         1 KFQ       0.146000
     18 H4           5.8800     0.0130    -3.3500 ha         1 KFQ       0.144000
     19 H5           3.4180     0.0050    -3.3170 ha         1 KFQ       0.145000
     20 H6           1.3950    -0.0150    -2.0300 hn         1 KFQ       0.353500
     21 H1           5.3920    -0.0030     4.4560 hs         1 KFQ       0.233800
@<TRIPOS>BOND
     1    11    12 ar
     2    11    10 ar
     3    12    13 ar
     4    10     9 ar
     5    13    14 ar
     6     7     6 1
     7     9    14 ar
     8     9     8 1
     9    14    15 1
    10     8     6 1
    11     8     3 1
    12     6     5 2
    13    15     2 1
    14     3     2 1
    15     3     4 2
    16     5     4 1
    17     2     1 2
    18    10    16 1
    19    11    17 1
    20    12    18 1
    21    13    19 1
    22    15    20 1
    23     7    21 1
@<TRIPOS>SUBSTRUCTURE
     1 KFQ         1 TEMP              0 ****  ****    0 ROOT
