@<TRIPOS>MOLECULE
KFQ
   21    23     1     0     0
SMALL
bcc


@<TRIPOS>ATOM
      1 OAA          0.0000     0.0000     0.0000 o          1 KFQ      -0.618500
      2 CAJ          1.2180     0.0000     0.0000 c          1 KFQ       0.541000
      3 CAN          1.9560     0.0000     1.2670 cc         1 KFQ       0.095000
      4 NAG          1.5920     0.0010     2.5290 nd         1 KFQ      -0.215000
      5 NAH          2.6370     0.0000     3.2820 nd         1 KFQ      -0.353000
      6 CAK          3.7320    -0.0000     2.5410 cc         1 KFQ       0.321800
      7 SAB          5.3920    -0.0010     3.1280 sh         1 KFQ      -0.367100
      8 NAO          3.3360    -0.0010     1.2420 na         1 KFQ       0.352200
      9 CAM          4.0100    -0.0010     0.0220 ca         1 KFQ      -0.236200
     10 CAF          5.3990     0.0030    -0.0080 ca         1 KFQ      -0.070000
     11 CAD          6.0640     0.0080    -1.2180 ca         1 KFQ      -0.110000
     12 CAC          5.3530     0.0090    -2.4040 ca         1 KFQ      -0.046000
     13 CAE          3.9720     0.0040    -2.3860 ca         1 KFQ      -0.138000
     14 CAL          3.2910    -0.0010    -1.1740 ca         1 KFQ      -0.062400
     15 NAI          1.8970    -0.0060    -1.1640 ns         1 KFQ      -0.004100
     16 H2           5.9600     0.0030     0.9190 ha         1 KFQ       0.149000
     17 H3           7.1470     0.0120    -1.2380 ha         1 KFQ       0.115000
     18 H4           5.8800     0.0130    -3.3500 ha         1 KFQ       0.110000
     19 H5           3.4180     0.0050    -3.3170 ha         1 KFQ       0.119000
     20 H6           1.3950    -0.0150    -2.0300 hn         1 KFQ       0.190500
     21 H1           5.3920    -0.0030     4.4560 hs         1 KFQ       0.224800
@<TRIPOS>BOND
     1     1     2 2   
     2     2     3 1   
     3     2    15 1   
     4     3     4 2   
     5     3     8 1   
     6     4     5 1   
     7     5     6 2   
     8     6     7 1   
     9     6     8 1   
    10     7    21 1   
    11     8     9 1   
    12     9    10 ar  
    13     9    14 ar  
    14    10    11 ar  
    15    10    16 1   
    16    11    12 ar  
    17    11    17 1   
    18    12    13 ar  
    19    12    18 1   
    20    13    14 ar  
    21    13    19 1   
    22    14    15 1   
    23    15    20 1   
@<TRIPOS>SUBSTRUCTURE
     1 KFQ         1 TEMP              0 ****  ****    0 ROOT
