@<TRIPOS>MOLECULE
KFZ
   34    36     1     0     0
SMALL
bcc


@<TRIPOS>ATOM
      1 CL1         0.0210   -0.1040    0.1800 cl        1 KFZ     -0.073400
      2 CAQ         1.7100    0.0330    0.0660 ca        1 KFZ      0.032400
      3 CAF         2.4450    0.1550    1.2520 ca        1 KFZ     -0.120000
      4 CAE         3.8300    0.2670    1.2110 ca        1 KFZ     -0.108000
      5 CAO         4.4850    0.2540   -0.0250 ca        1 KFZ      0.013400
      6 CL2         6.1770    0.3870   -0.0840 cl        1 KFZ     -0.081400
      7 CAG         3.7600    0.1330   -1.2110 ca        1 KFZ     -0.101000
      8 CAS         2.3610    0.0230   -1.1790 ca        1 KFZ     -0.070300
      9 CAJ         1.6290   -0.1230   -2.4560 c3        1 KFZ      0.007000
     10 SAN         1.2960    1.5310   -3.0220 ss        1 KFZ     -0.059300
     11 CAT         0.4670    1.2980   -4.4750 cc        1 KFZ      0.513200
     12 NAL         0.1880    0.0290   -5.0230 nc        1 KFZ     -0.387300
     13 NAM         0.0060    2.3540   -5.2300 nd        1 KFZ     -0.592100
     14 NAV        -0.5830    1.7660   -6.2880 na        1 KFZ     -0.040800
     15 CAU        -0.4840    0.3010   -6.1850 cd        1 KFZ      0.448500
     16 NAK        -1.0120   -0.5400   -7.1480 nd        1 KFZ     -0.654000
     17 CAR        -1.6210    0.0370   -8.1840 cc        1 KFZ      0.498600
     18 CAI        -2.2280   -0.7940   -9.2820 c3        1 KFZ     -0.134700
     19 CAA        -2.1000   -2.2840   -9.1110 c3        1 KFZ     -0.089100
     20 CAH        -1.7550    1.4570   -8.3500 cc        1 KFZ     -0.357300
     21 CAP        -1.2280    2.3140   -7.3880 cd        1 KFZ      0.261800
     22 OAB        -1.3700    3.6620   -7.5730 oh        1 KFZ     -0.477100
     23 HAF         1.9240    0.1630    2.2230 ha        1 KFZ      0.155000
     24 HAE         4.4040    0.3630    2.1460 ha        1 KFZ      0.154000
     25 HAG         4.2810    0.1230   -2.1820 ha        1 KFZ      0.159000
     26 HAJ1        2.2460   -0.6750   -3.2090 h1        1 KFZ      0.100200
     27 HAJ2        0.6770   -0.6980   -2.3250 h1        1 KFZ      0.100200
     28 HAB        -0.9690    4.1610   -6.8410 ho        1 KFZ      0.463000
     29 HAH        -2.2680    1.8750   -9.2240 ha        1 KFZ      0.177000
     30 HAI1       -1.7370   -0.4810  -10.2450 hc        1 KFZ      0.062700
     31 HAI2       -3.3140   -0.5130   -9.3500 hc        1 KFZ      0.062700
     32 HAA1       -2.5820   -2.8010   -9.9760 hc        1 KFZ      0.046367
     33 HAA2       -2.6000   -2.6240   -8.1710 hc        1 KFZ      0.046367
     34 HAA3       -1.0270   -2.5920   -9.0660 hc        1 KFZ      0.046367
@<TRIPOS>BOND
     1    1    2 1   
     2    2    3 ar  
     3    2    8 ar  
     4    3    4 ar  
     5    3   23 1   
     6    4    5 ar  
     7    4   24 1   
     8    5    6 1   
     9    5    7 ar  
    10    7    8 ar  
    11    7   25 1   
    12    8    9 1   
    13    9   10 1   
    14    9   26 1   
    15    9   27 1   
    16   10   11 1   
    17   11   12 1   
    18   11   13 2   
    19   12   15 2   
    20   13   14 1   
    21   14   15 1   
    22   14   21 1   
    23   15   16 1   
    24   16   17 2   
    25   17   18 1   
    26   17   20 1   
    27   18   19 1   
    28   18   30 1   
    29   18   31 1   
    30   19   32 1   
    31   19   33 1   
    32   19   34 1   
    33   20   21 2   
    34   20   29 1   
    35   21   22 1   
    36   22   28 1   
@<TRIPOS>SUBSTRUCTURE
     1 KFZ         1 TEMP              0 ****  ****    0 ROOT
