@<TRIPOS>MOLECULE
molecule
   34    36     1     0     0
SMALL
bcc


@<TRIPOS>ATOM
      1 Cl1          0.0000     0.0000     0.0000 cl         1 KFZ      -0.088400
      2 CAQ          1.7350     0.0000     0.0000 ca         1 KFZ       0.039400
      3 CAF          2.4280     0.0000     1.1980 ca         1 KFZ      -0.113000
      4 CAE          3.8100     0.0000     1.1970 ca         1 KFZ      -0.108000
      5 CAO          4.5020     0.0010    -0.0010 ca         1 KFZ       0.026400
      6 Cl2          6.2370     0.0010    -0.0020 cl         1 KFZ      -0.096400
      7 CAG          3.8090    -0.0000    -1.1990 ca         1 KFZ      -0.097000
      8 CAS          2.4270    -0.0060    -1.1980 ca         1 KFZ      -0.068300
      9 CAJ          1.6740    -0.0120    -2.5030 c3         1 KFZ       0.035000
     10 SAN          1.3710     1.6960    -3.0350 ss         1 KFZ      -0.116300
     11 CAT          0.4960     1.4900    -4.5500 cc         1 KFZ       0.595200
     12 NAL          0.1740     0.3210    -5.1000 nc         1 KFZ      -0.455300
     13 NAM          0.0520     2.4690    -5.3110 nd         1 KFZ      -0.577100
     14 NAV         -0.5840     1.8780    -6.4110 na         1 KFZ      -0.003800
     15 CAU         -0.4830     0.5270    -6.2370 cd         1 KFZ       0.475500
     16 NAK         -1.0080    -0.3110    -7.1390 nd         1 KFZ      -0.679000
     17 CAR         -1.6260     0.1450    -8.2090 cc         1 KFZ       0.504600
     18 CAI         -2.2070    -0.8230    -9.2070 c3         1 KFZ      -0.134700
     19 CAA         -1.9430    -2.2570    -8.7420 c3         1 KFZ      -0.083100
     20 CAH         -1.7450     1.5160    -8.4230 cc         1 KFZ      -0.353300
     21 CAP         -1.2180     2.3840    -7.5040 cd         1 KFZ       0.253800
     22 OAB         -1.3240     3.7200    -7.6820 oh         1 KFZ      -0.484100
     23 HAF          1.8870    -0.0000     2.1370 ha         1 KFZ       0.153000
     24 HAE          4.3520     0.0000     2.1350 ha         1 KFZ       0.152000
     25 HAG          4.3500    -0.0020    -2.1380 ha         1 KFZ       0.157000
     26 HAJ1         0.7270    -0.5220    -2.3710 h1         1 KFZ       0.093700
     27 HAJ2         2.2590    -0.5260    -3.2560 h1         1 KFZ       0.093700
     28 HAB         -2.1990     3.9970    -7.4680 ho         1 KFZ       0.446000
     29 HAH         -2.2530     1.8910    -9.3030 ha         1 KFZ       0.170000
     30 HAI1        -1.7440    -0.6670   -10.1740 hc         1 KFZ       0.063200
     31 HAI2        -3.2750    -0.6610    -9.2880 hc         1 KFZ       0.063200
     32 HAA1        -2.4060    -2.4140    -7.7750 hc         1 KFZ       0.046033
     33 HAA2        -0.8750    -2.4190    -8.6610 hc         1 KFZ       0.046033
     34 HAA3        -2.3610    -2.9520    -9.4590 hc         1 KFZ       0.046033
@<TRIPOS>BOND
     1     1     2 1
     2     2     3 ar
     3     2     8 ar
     4     3     4 ar
     5     4     5 ar
     6     5     6 1
     7     5     7 ar
     8     7     8 ar
     9     8     9 1
    10     9    10 1
    11    10    11 1
    12    11    12 1
    13    11    13 2
    14    12    15 2
    15    13    14 1
    16    14    15 1
    17    14    21 1
    18    15    16 1
    19    16    17 2
    20    17    18 1
    21    17    20 1
    22    18    19 1
    23    20    21 2
    24    21    22 1
    25     3    23 1
    26     4    24 1
    27     7    25 1
    28     9    26 1
    29     9    27 1
    30    18    30 1
    31    18    31 1
    32    19    32 1
    33    19    33 1
    34    19    34 1
    35    22    28 1
    36    20    29 1
@<TRIPOS>SUBSTRUCTURE
     1 KFZ         1 TEMP              0 ****  ****    0 ROOT
