@<TRIPOS>MOLECULE
molecule
   28    28     1     0     0
SMALL
bcc


@<TRIPOS>ATOM
      1 O4           0.0000     0.0000     0.0000 oh         1 KG1      -0.627800
      2 C4           1.4290     0.0000     0.0000 c3         1 KG1       0.144100
      3 C5           1.9410     0.0000     1.4420 c3         1 KG1       0.074100
      4 C6           1.3850    -1.2190     2.1810 c3         1 KG1      -0.156100
      5 O5           1.5100     1.1930     2.1000 os         1 KG1      -0.409600
      6 C3           1.9410     1.2540    -0.7140 c3         1 KG1       0.124100
      7 O3           1.4090     1.3010    -2.0400 oh         1 KG1      -0.558800
      8 C2           1.4870     2.4930     0.0630 c3         1 KG1       0.093100
      9 O2           2.0200     3.6660    -0.5540 oh         1 KG1      -0.617800
     10 C1           1.9970     2.3960     1.5040 c3         1 KG1       0.327900
     11 O1           3.4250     2.3850     1.5030 os         1 KG1      -0.358900
     12 CM           4.0400     2.4060     2.7090 c2         1 KG1      -0.051000
     13 C7           5.3450     2.3960     2.7770 c1         1 KG1       0.078200
     14 C8           6.6490     2.3770     2.8670 c2         1 KG1      -0.360100
     15 H1          -0.4600    -0.5450     0.6170 ho         1 KG1       0.422000
     16 H2           1.7960    -0.8810    -0.5120 h1         1 KG1       0.062700
     17 H3           3.0240    -0.0370     1.4390 h1         1 KG1       0.054700
     18 H4           0.3820    -0.8490     2.0080 hc         1 KG1       0.083700
     19 H5           2.1120    -1.9890     2.4080 hc         1 KG1       0.083700
     20 H6           1.3840    -0.7250     3.1450 hc         1 KG1       0.083700
     21 H7           3.0230     1.2300    -0.7540 h1         1 KG1       0.062700
     22 H8           1.5140     2.2350    -2.1150 ho         1 KG1       0.410000
     23 H9           0.4040     2.5400     0.0660 h1         1 KG1       0.111700
     24 H10          2.5990     4.1450     0.0150 ho         1 KG1       0.419000
     25 H11          1.6390     3.2480     2.0700 h2         1 KG1       0.089700
     26 H12          4.7790     3.1540     2.9680 h4         1 KG1       0.119000
     27 H14          7.3050     2.1730     2.0300 ha         1 KG1       0.147500
     28 H13          7.4220     2.5310     3.6100 ha         1 KG1       0.147500
@<TRIPOS>BOND
     1     4     3 1
     2     3     2 1
     3     3     5 1
     4    14    13 2
     5    13    12 2
     6     2     1 1
     7     2     6 1
     8    12    11 1
     9     5    10 1
    10    11    10 1
    11     6     7 1
    12     6     8 1
    13    10     8 1
    14     8     9 1
    15     1    15 1
    16     2    16 1
    17     3    17 1
    18     4    18 1
    19     4    19 1
    20     4    20 1
    21     6    21 1
    22     7    22 1
    23     8    23 1
    24     9    24 1
    25    10    25 1
    26    12    26 1
    27    14    27 1
    28    14    28 1
@<TRIPOS>SUBSTRUCTURE
     1 KG1         1 TEMP              0 ****  ****    0 ROOT
