@<TRIPOS>MOLECULE
molecule
   95    95     1     0     0
SMALL
bcc


@<TRIPOS>ATOM
      1 CAB          0.0000     0.0000     0.0000 c3         1 KGD      -0.035800
      2 CAC          1.5320     0.0000     0.0000 c3         1 KGD      -0.066400
      3 CAD         -0.4990    -1.2000     0.7620 ce         1 KGD      -0.000200
      4 CAE          2.0280     0.0000     1.4490 c3         1 KGD      -0.180400
      5 CAF         -0.5100     1.2770     0.6680 c3         1 KGD      -0.079600
      6 CAG         -0.5100    -0.0620    -1.4420 c3         1 KGD      -0.079600
      7 CAH          0.2400    -1.7390     1.7950 cf         1 KGD      -0.217400
      8 CAI          1.4670    -1.1990     2.1670 c          1 KGD       0.577300
      9 CAJ         -1.7210    -1.7740     0.4190 ce         1 KGD      -0.158000
     10 CAK         -0.2920    -2.9380     2.5360 c3         1 KGD      -0.042900
     11 CAL         -1.7830    -3.1070     0.0530 cf         1 KGD      -0.098000
     12 CAM         -3.0180    -3.7090    -0.1830 cf         1 KGD      -0.100200
     13 CAN         -4.2870    -2.9080    -0.0380 c3         1 KGD      -0.056900
     14 CAO         -3.0790    -5.0420    -0.5480 ce         1 KGD      -0.115000
     15 CAP         -4.3150    -5.6440    -0.7830 ce         1 KGD      -0.145000
     16 CAQ         -4.3750    -6.9760    -1.1490 cf         1 KGD      -0.111000
     17 CAR         -5.6120    -7.5790    -1.3840 cf         1 KGD      -0.092200
     18 CAS        -14.8220   -21.1020    -5.5900 c3         1 KGD      -0.037200
     19 CAT        -15.1380   -21.0550    -7.0870 c3         1 KGD      -0.044200
     20 CAU         -6.8800    -6.7790    -1.2390 c3         1 KGD      -0.057900
     21 CAV         -5.6730    -8.9120    -1.7500 ce         1 KGD      -0.120000
     22 CAW        -13.4880   -20.4520    -5.3370 c2         1 KGD      -0.107400
     23 CAX        -16.4720   -21.7060    -7.3400 c2         1 KGD      -0.187200
     24 CAY        -17.4520   -21.0100    -7.8630 c2         1 KGD      -0.127400
     25 CAZ        -12.2190   -21.2520    -5.4800 c3         1 KGD      -0.055900
     26 CBA        -13.4290   -19.1630    -4.9820 cf         1 KGD      -0.156000
     27 CBB         -6.9090    -9.5150    -1.9850 ce         1 KGD      -0.143000
     28 CBC        -18.7420   -21.6910    -8.2390 c3         1 KGD      -0.052400
     29 CBD        -17.2880   -19.5290    -8.0850 c3         1 KGD      -0.052400
     30 CBE        -12.1730   -18.5500    -4.7440 cf         1 KGD      -0.123000
     31 CBF        -12.1130   -17.2410    -4.3840 ce         1 KGD      -0.133000
     32 CBG         -6.9700   -10.8460    -2.3500 cf         1 KGD      -0.124000
     33 CBH        -10.8680   -16.6330    -4.1480 ce         1 KGD      -0.073200
     34 CBI         -8.2070   -11.4500    -2.5850 cf         1 KGD      -0.139000
     35 CBJ        -10.8080   -15.3170    -3.7870 cf         1 KGD      -0.140000
     36 CBK         -9.6000   -17.4340    -4.2920 c3         1 KGD      -0.059900
     37 CBL         -8.2680   -12.7790    -2.9500 ce         1 KGD      -0.073200
     38 CBM         -9.5680   -14.7120    -3.5510 cf         1 KGD      -0.126000
     39 CBN         -9.5070   -13.3830    -3.1860 ce         1 KGD      -0.132000
     40 CBO         -7.0000   -13.5800    -3.0950 c3         1 KGD      -0.060900
     41 OAA          2.0910    -1.6990     3.0840 o          1 KGD      -0.540100
     42 H1           1.8930     0.8870    -0.5060 hc         1 KGD       0.050700
     43 H2           1.8930    -0.8870    -0.5060 hc         1 KGD       0.050700
     44 H3           1.6970     0.9050     1.9430 hc         1 KGD       0.071200
     45 H4           3.1110    -0.0480     1.4580 hc         1 KGD       0.071200
     46 H5           0.1350     2.1060     0.4020 hc         1 KGD       0.040033
     47 H6          -0.5080     1.1480     1.7430 hc         1 KGD       0.040033
     48 H7          -1.5190     1.4830     0.3310 hc         1 KGD       0.040033
     49 H8          -1.5900     0.0110    -1.4460 hc         1 KGD       0.040033
     50 H9          -0.0890     0.7590    -2.0090 hc         1 KGD       0.040033
     51 H10         -0.2100    -1.0020    -1.8900 hc         1 KGD       0.040033
     52 H11         -2.6340    -1.1990     0.5210 ha         1 KGD       0.145000
     53 H12          0.1500    -2.9770     3.5240 hc         1 KGD       0.049033
     54 H13         -0.0410    -3.8400     1.9920 hc         1 KGD       0.049033
     55 H14         -1.3690    -2.8580     2.6260 hc         1 KGD       0.049033
     56 H15         -0.8790    -3.7040     0.0340 ha         1 KGD       0.137000
     57 H16         -4.1000    -2.0470     0.5920 hc         1 KGD       0.045033
     58 H17         -4.6180    -2.5770    -1.0140 hc         1 KGD       0.045033
     59 H18         -5.0540    -3.5260     0.4140 hc         1 KGD       0.045033
     60 H19         -2.1670    -5.6170    -0.6510 ha         1 KGD       0.130000
     61 H20         -5.2270    -5.0690    -0.6780 ha         1 KGD       0.136000
     62 H22         -3.4630    -7.5520    -1.2540 ha         1 KGD       0.130000
     63 H23        -15.5920   -20.5730    -5.0420 hc         1 KGD       0.050200
     64 H24        -14.7890   -22.1340    -5.2610 hc         1 KGD       0.050200
     65 H25        -15.1700   -20.0230    -7.4160 hc         1 KGD       0.051200
     66 H26        -14.3680   -21.5850    -7.6350 hc         1 KGD       0.051200
     67 H27         -6.9260    -6.0300    -2.0210 hc         1 KGD       0.045367
     68 H28         -6.8910    -6.2920    -0.2710 hc         1 KGD       0.045367
     69 H29         -7.7350    -7.4390    -1.3210 hc         1 KGD       0.045367
     70 H30         -4.7610    -9.4870    -1.8530 ha         1 KGD       0.129000
     71 H32        -16.5920   -22.7700    -7.1800 ha         1 KGD       0.124000
     72 H33        -11.6040   -20.8170    -6.2590 hc         1 KGD       0.043700
     73 H34        -12.4640   -22.2740    -5.7420 hc         1 KGD       0.043700
     74 H35        -11.6760   -21.2390    -4.5430 hc         1 KGD       0.043700
     75 H36        -14.3410   -18.5880    -4.8780 ha         1 KGD       0.129000
     76 H37         -7.8210    -8.9390    -1.8800 ha         1 KGD       0.134000
     77 H39        -19.5440   -20.9620    -8.2550 hc         1 KGD       0.041200
     78 H40        -18.9700   -22.4610    -7.5130 hc         1 KGD       0.041200
     79 H41        -18.6420   -22.1380    -9.2210 hc         1 KGD       0.041200
     80 H42        -17.0650   -19.0440    -7.1420 hc         1 KGD       0.041200
     81 H43        -16.4750   -19.3560    -8.7810 hc         1 KGD       0.041200
     82 H44        -18.2050   -19.1210    -8.4930 hc         1 KGD       0.041200
     83 H45        -11.2610   -19.1260    -4.8480 ha         1 KGD       0.133000
     84 H47        -13.0250   -16.6660    -4.2800 ha         1 KGD       0.130000
     85 H49         -6.0580   -11.4210    -2.4540 ha         1 KGD       0.132000
     86 H52         -9.1190   -10.8740    -2.4820 ha         1 KGD       0.130000
     87 H54        -11.7200   -14.7420    -3.6820 ha         1 KGD       0.130000
     88 H56         -9.8140   -18.4830    -4.1240 hc         1 KGD       0.045367
     89 H57         -8.8730   -17.0930    -3.5650 hc         1 KGD       0.045367
     90 H58         -9.2010   -17.3020    -5.2910 hc         1 KGD       0.045367
     91 H59         -8.6560   -15.2880    -3.6540 ha         1 KGD       0.134000
     92 H61        -10.4180   -12.8080    -3.0820 ha         1 KGD       0.130000
     93 H62         -6.8840   -14.2310    -2.2370 hc         1 KGD       0.045700
     94 H63         -6.1530   -12.9070    -3.1560 hc         1 KGD       0.045700
     95 H64         -7.0510   -14.1780    -3.9970 hc         1 KGD       0.045700
@<TRIPOS>BOND
     1    10     7 1
     2    13    12 1
     3    41     8 2
     4    20    17 1
     5     7     8 1
     6     7     3 2
     7     8     4 1
     8     9     3 1
     9     9    11 2
    10    12    11 1
    11    12    14 2
    12    15    14 1
    13    15    16 2
    14     3     1 1
    15    17    16 1
    16    17    21 2
    17     4     2 1
    18    27    21 1
    19    27    32 2
    20     1     6 1
    21     1     2 1
    22     1     5 1
    23    34    32 1
    24    34    37 2
    25    39    37 1
    26    39    38 2
    27    37    40 1
    28    35    38 1
    29    35    33 2
    30    31    33 1
    31    31    30 2
    32    33    36 1
    33    26    30 1
    34    26    22 2
    35    19    18 1
    36    19    23 1
    37    18    22 1
    38    28    24 1
    39    22    25 1
    40    23    24 2
    41    24    29 1
    42     2    42 1
    43     2    43 1
    44     4    44 1
    45     4    45 1
    46     5    46 1
    47     5    47 1
    48     5    48 1
    49     6    49 1
    50     6    50 1
    51     6    51 1
    52     9    52 1
    53    10    53 1
    54    10    54 1
    55    10    55 1
    56    11    56 1
    57    13    57 1
    58    13    58 1
    59    13    59 1
    60    14    60 1
    61    15    61 1
    62    16    62 1
    63    18    63 1
    64    18    64 1
    65    19    65 1
    66    19    66 1
    67    20    67 1
    68    20    68 1
    69    20    69 1
    70    21    70 1
    71    23    71 1
    72    25    72 1
    73    25    73 1
    74    25    74 1
    75    26    75 1
    76    27    76 1
    77    28    77 1
    78    28    78 1
    79    28    79 1
    80    29    80 1
    81    29    81 1
    82    29    82 1
    83    30    83 1
    84    31    84 1
    85    32    85 1
    86    34    86 1
    87    35    87 1
    88    36    88 1
    89    36    89 1
    90    36    90 1
    91    38    91 1
    92    39    92 1
    93    40    93 1
    94    40    94 1
    95    40    95 1
@<TRIPOS>SUBSTRUCTURE
     1 KGD         1 TEMP              0 ****  ****    0 ROOT
