@<TRIPOS>MOLECULE
molecule
   52    55     1     0     0
SMALL
bcc


@<TRIPOS>ATOM
      1 C1           0.0000     0.0000     0.0000 c3         1 KGG       0.124700
      2 O2           1.4290     0.0000     0.0000 os         1 KGG      -0.317900
      3 C3           2.0460     0.0000     1.2100 ca         1 KGG       0.169100
      4 C4           3.4320    -0.0010     1.2840 ca         1 KGG      -0.180500
      5 C5           4.0570    -0.0010     2.5150 ca         1 KGG      -0.072500
      6 C6           3.3030    -0.0010     3.6740 ca         1 KGG      -0.138300
      7 C7           1.9230    -0.0010     3.6030 ca         1 KGG      -0.072500
      8 C8           1.2920     0.0060     2.3740 ca         1 KGG      -0.180500
      9 C9           3.9880    -0.0010     5.0170 c3         1 KGG       0.236800
     10 C10          3.4790    -1.1800     5.8790 c3         1 KGG      -0.087400
     11 C11          4.5530    -2.2520     5.5760 c3         1 KGG       0.072800
     12 C12          5.7590    -1.4470     5.1490 c2         1 KGG       0.339200
     13 N13          5.4270    -0.2380     4.8540 n2         1 KGG      -0.457900
     14 N14          7.0370    -1.9380     5.0820 nz         1 KGG      -0.717600
     15 O15          4.1210    -3.1100     4.5180 os         1 KGG      -0.382600
     16 C16          4.6340    -4.4410     4.6010 c3         1 KGG       0.113700
     17 C17          3.7490     1.3070     5.7260 ca         1 KGG      -0.095300
     18 C18          2.6600     1.4480     6.5660 ca         1 KGG      -0.124000
     19 C19          2.4340     2.6450     7.2200 ca         1 KGG      -0.112000
     20 C20          3.2970     3.7070     7.0360 ca         1 KGG      -0.103000
     21 C21          4.3960     3.5710     6.1920 cp         1 KGG      -0.016000
     22 C22          4.6200     2.3610     5.5400 ca         1 KGG      -0.096000
     23 C23          5.3260     4.7100     5.9910 cp         1 KGG      -0.146300
     24 C24          5.1110     5.9260     6.6440 ca         1 KGG      -0.079000
     25 C25          6.0080     6.9570     6.4250 ca         1 KGG      -0.241300
     26 C26          7.0780     6.7520     5.5730 ca         1 KGG       0.418200
     27 N27          7.2550     5.5920     4.9700 nb         1 KGG      -0.704000
     28 C28          6.4310     4.5810     5.1530 ca         1 KGG       0.398200
     29 H11C        -0.3610    -0.8760     0.5250 h1         1 KGG       0.049700
     30 H12C        -0.3610     0.8930     0.4960 h1         1 KGG       0.049700
     31 H13C        -0.3610    -0.0170    -1.0210 h1         1 KGG       0.049700
     32 H4           4.0220     0.0360     0.3760 ha         1 KGG       0.153000
     33 H8           0.2120     0.0730     2.3190 ha         1 KGG       0.153000
     34 H5           5.1380     0.0380     2.5730 ha         1 KGG       0.130000
     35 H7           1.3340    -0.0080     4.5130 ha         1 KGG       0.130000
     36 H101         3.4770    -0.9190     6.9300 hc         1 KGG       0.101200
     37 H102         2.5000    -1.5080     5.5480 hc         1 KGG       0.101200
     38 H11          4.7780    -2.8230     6.4680 h1         1 KGG       0.061700
     39 H141         7.6890    -1.1930     5.2280 hn         1 KGG       0.468467
     40 H142         7.1920    -2.3450     4.1810 hn         1 KGG       0.468467
     41 H161         4.0660    -5.0890     3.9450 h1         1 KGG       0.042700
     42 H162         5.6750    -4.4460     4.3000 h1         1 KGG       0.042700
     43 H163         4.5510    -4.7970     5.6210 h1         1 KGG       0.042700
     44 H18          1.9800     0.6170     6.7120 ha         1 KGG       0.130000
     45 H22          5.4740     2.2490     4.8810 ha         1 KGG       0.143000
     46 H19          1.5780     2.7500     7.8770 ha         1 KGG       0.147000
     47 H20          3.1180     4.6450     7.5470 ha         1 KGG       0.147000
     48 H24          4.1530     6.1300     7.1070 ha         1 KGG       0.147000
     49 H28          6.9720     3.8900     4.5190 h4         1 KGG       0.045100
     50 H25          5.9640     7.8520     7.0330 ha         1 KGG       0.149000
     51 H26          7.7820     7.5570     5.3980 h4         1 KGG       0.030100
     52 H143         7.1640    -2.6340     5.7900 hn         1 KGG       0.468467
@<TRIPOS>BOND
     1     1     2 1
     2     2     3 1
     3     3     4 ar
     4     3     8 ar
     5     4     5 ar
     6     5     6 ar
     7     6     7 ar
     8     6     9 1
     9     7     8 ar
    10     9    10 1
    11     9    13 1
    12     9    17 1
    13    10    11 1
    14    11    12 1
    15    11    15 1
    16    12    13 2
    17    12    14 1
    18    15    16 1
    19    17    18 ar
    20    17    22 ar
    21    18    19 ar
    22    19    20 ar
    23    20    21 ar
    24    21    22 ar
    25    21    23 1
    26    23    24 ar
    27    23    28 ar
    28    24    25 ar
    29    25    26 ar
    30    26    27 ar
    31    27    28 ar
    32     1    29 1
    33     1    30 1
    34     1    31 1
    35     4    32 1
    36     8    33 1
    37     5    34 1
    38     7    35 1
    39    10    36 1
    40    10    37 1
    41    11    38 1
    42    14    39 1
    43    14    40 1
    44    16    41 1
    45    16    42 1
    46    16    43 1
    47    18    44 1
    48    22    45 1
    49    19    46 1
    50    20    47 1
    51    24    48 1
    52    28    49 1
    53    25    50 1
    54    26    51 1
    55    52    14 1
@<TRIPOS>SUBSTRUCTURE
     1 KGG         1 TEMP              0 ****  ****    0 ROOT
