@<TRIPOS>MOLECULE
KGG
   52    55     1     0     0
SMALL
bcc


@<TRIPOS>ATOM
      1 C1           0.0000     0.0000     0.0000 c3         1 KGG       0.243700
      2 O2           1.4290     0.0000     0.0000 os         1 KGG      -0.297900
      3 C3           2.0460     0.0000     1.2100 ca         1 KGG       0.182100
      4 C4           3.4320    -0.0010     1.2840 ca         1 KGG      -0.162500
      5 C5           4.0570    -0.0010     2.5150 ca         1 KGG      -0.045000
      6 C6           3.3030    -0.0010     3.6740 ca         1 KGG      -0.164300
      7 C7           1.9230    -0.0010     3.6030 ca         1 KGG      -0.045000
      8 C8           1.2920     0.0060     2.3740 ca         1 KGG      -0.162500
      9 C9           3.9880    -0.0010     5.0170 c3         1 KGG       0.227800
     10 C10          3.4790    -1.1800     5.8790 c3         1 KGG      -0.054400
     11 C11          4.5530    -2.2520     5.5760 c3         1 KGG       0.144800
     12 C12          5.7590    -1.4470     5.1490 c2         1 KGG       0.027200
     13 N13          5.4270    -0.2380     4.8540 n2         1 KGG      -0.288900
     14 N14          7.0370    -1.9380     5.0820 nz         1 KGG       0.239400
     15 O15          4.1210    -3.1100     4.5180 os         1 KGG      -0.373600
     16 C16          4.6340    -4.4410     4.6010 c3         1 KGG       0.245700
     17 C17          3.7490     1.3070     5.7260 ca         1 KGG      -0.118300
     18 C18          2.6600     1.4480     6.5660 ca         1 KGG      -0.101000
     19 C19          2.4340     2.6450     7.2200 ca         1 KGG      -0.079000
     20 C20          3.2970     3.7070     7.0360 ca         1 KGG      -0.080000
     21 C21          4.3960     3.5710     6.1920 cp         1 KGG      -0.007000
     22 C22          4.6200     2.3610     5.5400 ca         1 KGG      -0.082000
     23 C23          5.3260     4.7100     5.9910 cp         1 KGG      -0.134300
     24 C24          5.1110     5.9260     6.6440 ca         1 KGG      -0.060000
     25 C25          6.0080     6.9570     6.4250 ca         1 KGG      -0.207300
     26 C26          7.0780     6.7520     5.5730 ca         1 KGG       0.419200
     27 N27          7.2550     5.5920     4.9700 nb         1 KGG      -0.619000
     28 C28          6.4310     4.5810     5.1530 ca         1 KGG       0.380200
     29 H11C        -0.3610    -0.8760     0.5250 h1         1 KGG       0.004367
     30 H12C        -0.3610     0.8930     0.4960 h1         1 KGG       0.004367
     31 H13C        -0.3610    -0.0170    -1.0210 h1         1 KGG       0.004367
     32 H4           4.0220     0.0360     0.3760 ha         1 KGG       0.130000
     33 H8           0.2120     0.0730     2.3190 ha         1 KGG       0.130000
     34 H5           5.1380     0.0380     2.5730 ha         1 KGG       0.102000
     35 H7           1.3340    -0.0080     4.5130 ha         1 KGG       0.102000
     36 H101         3.4770    -0.9190     6.9300 hc         1 KGG       0.070200
     37 H102         2.5000    -1.5080     5.5480 hc         1 KGG       0.070200
     38 H11          4.7780    -2.8230     6.4680 h1         1 KGG       0.030700
     39 H141         7.6890    -1.1930     5.2280 hn         1 KGG       0.211133
     40 H142         7.1920    -2.3450     4.1810 hn         1 KGG       0.211133
     41 H161         4.0660    -5.0890     3.9450 h1         1 KGG      -0.002967
     42 H162         5.6750    -4.4460     4.3000 h1         1 KGG      -0.002967
     43 H163         4.5510    -4.7970     5.6210 h1         1 KGG      -0.002967
     44 H18          1.9800     0.6170     6.7120 ha         1 KGG       0.110000
     45 H22          5.4740     2.2490     4.8810 ha         1 KGG       0.119000
     46 H19          1.5780     2.7500     7.8770 ha         1 KGG       0.115000
     47 H20          3.1180     4.6450     7.5470 ha         1 KGG       0.121000
     48 H24          4.1530     6.1300     7.1070 ha         1 KGG       0.121000
     49 H28          6.9720     3.8900     4.5190 h4         1 KGG       0.007100
     50 H25          5.9640     7.8520     7.0330 ha         1 KGG       0.122000
     51 H26          7.7820     7.5570     5.3980 h4         1 KGG      -0.013900
     52 H143         7.1640    -2.6340     5.7900 hn         1 KGG       0.211133
@<TRIPOS>BOND
     1     1     2 1   
     2     1    29 1   
     3     1    30 1   
     4     1    31 1   
     5     2     3 1   
     6     3     4 ar  
     7     3     8 ar  
     8     4     5 ar  
     9     4    32 1   
    10     5     6 ar  
    11     5    34 1   
    12     6     7 ar  
    13     6     9 1   
    14     7     8 ar  
    15     7    35 1   
    16     8    33 1   
    17     9    10 1   
    18     9    13 1   
    19     9    17 1   
    20    10    11 1   
    21    10    36 1   
    22    10    37 1   
    23    11    12 1   
    24    11    15 1   
    25    11    38 1   
    26    12    13 2   
    27    12    14 1   
    28    14    39 1   
    29    14    40 1   
    30    14    52 1   
    31    15    16 1   
    32    16    41 1   
    33    16    42 1   
    34    16    43 1   
    35    17    18 ar  
    36    17    22 ar  
    37    18    19 ar  
    38    18    44 1   
    39    19    20 ar  
    40    19    46 1   
    41    20    21 ar  
    42    20    47 1   
    43    21    22 ar  
    44    21    23 1   
    45    22    45 1   
    46    23    24 ar  
    47    23    28 ar  
    48    24    25 ar  
    49    24    48 1   
    50    25    26 ar  
    51    25    50 1   
    52    26    27 ar  
    53    26    51 1   
    54    27    28 ar  
    55    28    49 1   
@<TRIPOS>SUBSTRUCTURE
     1 KGG         1 TEMP              0 ****  ****    0 ROOT
