@<TRIPOS>MOLECULE
KGM
   45    45     1     0     0
SMALL
bcc


@<TRIPOS>ATOM
      1 O6          0.0170    0.3750    0.2140 oh        1 KGM     -0.597800
      2 C6          1.3650   -0.0590    0.1310 c3        1 KGM      0.135400
      3 C5          1.9490    0.0360    1.5410 c3        1 KGM      0.141100
      4 C10        -2.5360    1.9290    6.0940 c3        1 KGM     -0.078400
      5 O5          1.6070   -1.1880    2.2020 os        1 KGM     -0.444600
      6 C4          3.4800    0.1700    1.5010 c3        1 KGM      0.086100
      7 O4          3.7920    1.3830    0.8420 oh        1 KGM     -0.592800
      8 C3          4.0290    0.1620    2.9390 c3        1 KGM      0.076100
      9 O3          5.4390    0.2600    2.9080 oh        1 KGM     -0.595800
     10 C2          3.5590   -1.0890    3.6920 c3        1 KGM      0.093100
     11 O2          4.2340   -2.2390    3.2180 oh        1 KGM     -0.593800
     12 C1          2.0350   -1.2720    3.5470 c3        1 KGM      0.300900
     13 O1          1.4100   -0.2340    4.2690 os        1 KGM     -0.445600
     14 C7         -0.0070   -0.4060    4.4020 c3        1 KGM      0.131400
     15 C8         -0.5140    0.8130    5.1510 c3        1 KGM     -0.083400
     16 C9         -2.0110    0.7210    5.3480 c3        1 KGM     -0.078400
     17 C13        -6.0520    2.9660    7.2430 c3        1 KGM     -0.092100
     18 C12        -4.5610    3.0490    7.0410 c3        1 KGM     -0.080400
     19 C11        -4.0340    1.8410    6.2950 c3        1 KGM     -0.079400
     20 H131       -6.4190    3.8650    7.7940 hc        1 KGM      0.032700
     21 H132       -6.5810    2.9130    6.2610 hc        1 KGM      0.032700
     22 H133       -6.3200    2.0560    7.8340 hc        1 KGM      0.032700
     23 H121       -4.3100    3.9800    6.4680 hc        1 KGM      0.039200
     24 H122       -4.0490    3.1260    8.0360 hc        1 KGM      0.039200
     25 H111       -4.2830    0.9080    6.8670 hc        1 KGM      0.039700
     26 H112       -4.5430    1.7640    5.2980 hc        1 KGM      0.039700
     27 H101       -2.0270    2.0070    7.0900 hc        1 KGM      0.041700
     28 H102       -2.2870    2.8610    5.5210 hc        1 KGM      0.041700
     29 H91C       -2.2600   -0.2110    5.9210 hc        1 KGM      0.041700
     30 H92C       -2.5190    0.6440    4.3510 hc        1 KGM      0.041700
     31 H81C       -0.2560    1.7370    4.5710 hc        1 KGM      0.054200
     32 H82C        0.0050    0.8860    6.1410 hc        1 KGM      0.054200
     33 H71C       -0.4670   -0.4810    3.3810 h1        1 KGM      0.042700
     34 H72C       -0.2090   -1.3490    4.9760 h1        1 KGM      0.042700
     35 H1          1.7090   -2.2960    3.8850 h2        1 KGM      0.088700
     36 H2          3.8410   -1.0140    4.7780 h1        1 KGM      0.109700
     37 HA          3.8680   -2.4520    2.3490 ho        1 KGM      0.412000
     38 H3          3.6800    1.0850    3.4830 h1        1 KGM      0.108700
     39 HB          5.7890   -0.6260    2.7360 ho        1 KGM      0.417000
     40 H4          3.9290   -0.6850    0.9200 h1        1 KGM      0.037700
     41 HC          4.6970    1.6130    1.0990 ho        1 KGM      0.423000
     42 H5          1.4950    0.9030    2.0950 h1        1 KGM      0.092700
     43 H61C        1.9480    0.6180   -0.5500 h1        1 KGM      0.045200
     44 H62C        1.4110   -1.1160   -0.2410 h1        1 KGM      0.045200
     45 H6         -0.3520    0.2860   -0.6720 ho        1 KGM      0.402000
@<TRIPOS>BOND
     1    1    2 1   
     2    1   45 1   
     3    2    3 1   
     4    2   43 1   
     5    2   44 1   
     6    3    5 1   
     7    3    6 1   
     8    3   42 1   
     9    4   16 1   
    10    4   19 1   
    11    4   27 1   
    12    4   28 1   
    13    5   12 1   
    14    6    7 1   
    15    6    8 1   
    16    6   40 1   
    17    7   41 1   
    18    8    9 1   
    19    8   10 1   
    20    8   38 1   
    21    9   39 1   
    22   10   11 1   
    23   10   12 1   
    24   10   36 1   
    25   11   37 1   
    26   12   13 1   
    27   12   35 1   
    28   13   14 1   
    29   14   15 1   
    30   14   33 1   
    31   14   34 1   
    32   15   16 1   
    33   15   31 1   
    34   15   32 1   
    35   16   29 1   
    36   16   30 1   
    37   17   18 1   
    38   17   20 1   
    39   17   21 1   
    40   17   22 1   
    41   18   19 1   
    42   18   23 1   
    43   18   24 1   
    44   19   25 1   
    45   19   26 1   
@<TRIPOS>SUBSTRUCTURE
     1 KGM         1 TEMP              0 ****  ****    0 ROOT
