@<TRIPOS>MOLECULE
molecule
   45    45     1     0     0
SMALL
bcc


@<TRIPOS>ATOM
      1 O6           0.0000     0.0000     0.0000 oh         1 KGM      -0.604800
      2 C6           1.4290     0.0000     0.0000 c3         1 KGM       0.150400
      3 C5           1.9390     0.0000     1.4420 c3         1 KGM       0.147100
      4 C10         -2.5240     1.9700     6.1650 c3         1 KGM      -0.080400
      5 O5           1.5620    -1.2220     2.0810 os         1 KGM      -0.410600
      6 C4           3.4650     0.1240     1.4440 c3         1 KGM       0.116100
      7 O4           3.8430     1.3710     0.8580 oh         1 KGM      -0.606800
      8 C3           3.9730     0.0620     2.8880 c3         1 KGM       0.134100
      9 O3           5.4020     0.1030     2.8940 oh         1 KGM      -0.596800
     10 C2           3.4950    -1.2450     3.5290 c3         1 KGM       0.113100
     11 O2           4.0640    -2.3550     2.8330 oh         1 KGM      -0.576800
     12 C1           1.9690    -1.3170     3.4470 c3         1 KGM       0.317900
     13 O1           1.4000    -0.2350     4.1890 os         1 KGM      -0.457600
     14 C7          -0.0150    -0.3330     4.3680 c3         1 KGM       0.137400
     15 C8          -0.5120     0.8710     5.1710 c3         1 KGM      -0.081400
     16 C9          -2.0260     0.7660     5.3620 c3         1 KGM      -0.080400
     17 C13         -6.0490     2.9630     7.3510 c3         1 KGM      -0.092100
     18 C12         -4.5350     3.0680     7.1600 c3         1 KGM      -0.084400
     19 C11         -4.0370     1.8650     6.3560 c3         1 KGM      -0.081400
     20 H131        -6.5350     2.9500     6.3830 hc         1 KGM       0.033033
     21 H132        -6.4010     3.8150     7.9200 hc         1 KGM       0.033033
     22 H133        -6.2830     2.0500     7.8850 hc         1 KGM       0.033033
     23 H121        -4.3010     3.9810     6.6260 hc         1 KGM       0.040200
     24 H122        -4.0490     3.0820     8.1280 hc         1 KGM       0.040200
     25 H111        -4.2720     0.9520     6.8900 hc         1 KGM       0.041700
     26 H112        -4.5230     1.8510     5.3880 hc         1 KGM       0.041700
     27 H101        -2.2900     2.8820     5.6300 hc         1 KGM       0.042700
     28 H102        -2.0380     1.9840     7.1330 hc         1 KGM       0.042700
     29 H91C        -2.2600    -0.1470     5.8970 hc         1 KGM       0.043700
     30 H92C        -2.5110     0.7520     4.3940 hc         1 KGM       0.043700
     31 H81C        -0.0260     0.8840     6.1390 hc         1 KGM       0.051200
     32 H82C        -0.2780     1.7830     4.6370 hc         1 KGM       0.051200
     33 H71C        -0.2500    -1.2450     4.9020 h1         1 KGM       0.037200
     34 H72C        -0.5010    -0.3460     3.3990 h1         1 KGM       0.037200
     35 H1           1.6310    -2.2600     3.8590 h2         1 KGM       0.076700
     36 H2           3.8010    -1.2680     4.5680 h1         1 KGM       0.049700
     37 HA           4.3500    -3.0030     3.4550 ho         1 KGM       0.404000
     38 H3           3.5780     0.9030     3.4460 h1         1 KGM       0.067700
     39 HB           5.6950     0.7360     3.5290 ho         1 KGM       0.404000
     40 H4           3.8930    -0.6930     0.8760 h1         1 KGM       0.070700
     41 HC           4.5490     1.2310     0.2490 ho         1 KGM       0.412000
     42 H5           1.5100     0.8350     1.9820 h1         1 KGM       0.071700
     43 H61C         1.7900     0.8850    -0.5090 h1         1 KGM       0.035700
     44 H62C         1.7900    -0.8840    -0.5120 h1         1 KGM       0.035700
     45 H6          -0.3140     0.1090    -0.8820 ho         1 KGM       0.401000
@<TRIPOS>BOND
     1    17    18 1
     2    18    19 1
     3    19     4 1
     4     4    16 1
     5    16    15 1
     6    15    14 1
     7    14    13 1
     8    13    12 1
     9    12    10 1
    10    12     5 1
    11    10    11 1
    12    10     8 1
    13     8     9 1
    14     8     6 1
    15     6     7 1
    16     6     3 1
    17     3     5 1
    18     3     2 1
    19     2     1 1
    20    17    20 1
    21    17    21 1
    22    17    22 1
    23    18    23 1
    24    18    24 1
    25    19    25 1
    26    19    26 1
    27     4    27 1
    28     4    28 1
    29    16    29 1
    30    16    30 1
    31    15    31 1
    32    15    32 1
    33    14    33 1
    34    14    34 1
    35    12    35 1
    36    10    36 1
    37    11    37 1
    38     8    38 1
    39     9    39 1
    40     6    40 1
    41     7    41 1
    42     3    42 1
    43     2    43 1
    44     2    44 1
    45     1    45 1
@<TRIPOS>SUBSTRUCTURE
     1 KGM         1 TEMP              0 ****  ****    0 ROOT
