@<TRIPOS>MOLECULE
molecule
   19    18     1     0     0
SMALL
bcc


@<TRIPOS>ATOM
      1 O1B          0.0000     0.0000     0.0000 o          1 KGR      -0.853800
      2 O1A          1.8300     0.0050    -1.0560 o          1 KGR      -0.853800
      3 C1           1.2200     0.0000     0.0000 c          1 KGR       0.908600
      4 C2           1.9740     0.0000     1.3050 c3         1 KGR       0.003100
      5 O2           3.3740     0.1170     1.0470 oh         1 KGR      -0.589800
      6 C3           1.7000    -1.3070     2.0520 c3         1 KGR       0.179100
      7 O3           2.0230    -2.4130     1.2070 oh         1 KGR      -0.590800
      8 C4           2.5610    -1.3630     3.3160 c3         1 KGR      -0.191400
      9 O5           1.3490    -3.3430     3.7130 o          1 KGR      -0.566100
     10 C5           2.2030    -2.5900     4.1140 c          1 KGR       0.486100
     11 C6           2.9050    -2.8750     5.3980 c          1 KGR       0.803600
     12 O6A          2.6020    -3.9160     6.0750 o          1 KGR      -0.838800
     13 O6B          3.8100    -2.0760     5.8230 o          1 KGR      -0.838800
     14 H21          1.6470     0.8370     1.9100 h1         1 KGR       0.002700
     15 HO21         3.6050     1.0280     0.9710 ho         1 KGR       0.365000
     16 H31          0.6530    -1.3550     2.3260 h1         1 KGR       0.044700
     17 HO31         1.2400    -2.9040     1.0190 ho         1 KGR       0.391000
     18 H41          2.3810    -0.4780     3.9140 hc         1 KGR       0.070200
     19 H42          3.6070    -1.4050     3.0390 hc         1 KGR       0.070200
@<TRIPOS>BOND
     1     1     3 1
     2     2     3 1
     3     3     4 1
     4     4     5 1
     5     4     6 1
     6     4    14 1
     7     5    15 1
     8     6     7 1
     9     6     8 1
    10     6    16 1
    11     7    17 1
    12     8    10 1
    13     8    18 1
    14     8    19 1
    15     9    10 2
    16    10    11 1
    17    11    12 1
    18    11    13 1
@<TRIPOS>SUBSTRUCTURE
     1 KGR         1 TEMP              0 ****  ****    0 ROOT
