@<TRIPOS>MOLECULE
KGR
   19    18     1     0     0
SMALL
bcc


@<TRIPOS>ATOM
      1 O1B         0.1240    1.0340    0.6900 o         1 KGR     -0.852800
      2 O1A         1.5400    0.5170   -0.9580 o         1 KGR     -0.852800
      3 C1          1.2140    0.5570    0.2650 c         1 KGR      0.897600
      4 C2          2.2460    0.0280    1.2910 c3        1 KGR      0.029100
      5 O2          3.5090   -0.1670    0.6820 oh        1 KGR     -0.628800
      6 C3          1.7670   -1.2640    1.9780 c3        1 KGR      0.138100
      7 O3          2.0150   -2.3400    1.0800 oh        1 KGR     -0.614800
      8 C4          2.4940   -1.4860    3.3030 c3        1 KGR     -0.222400
      9 O5          1.3140   -3.5620    3.6000 o         1 KGR     -0.618100
     10 C5          2.0680   -2.7000    4.0780 c         1 KGR      0.480100
     11 C6          2.6500   -2.8050    5.4940 c         1 KGR      0.847600
     12 O6A         3.7270   -3.4480    5.6390 o         1 KGR     -0.833300
     13 O6B         2.0290   -2.2300    6.4310 o         1 KGR     -0.833300
     14 H21         2.4120    0.8110    2.0800 h1        1 KGR      0.044700
     15 HO21        3.3230   -0.5010   -0.2080 ho        1 KGR      0.419000
     16 H31         0.6590   -1.1810    2.1640 h1        1 KGR      0.048700
     17 HO31        1.6610   -3.1290    1.5090 ho        1 KGR      0.403000
     18 H41         3.5940   -1.5820    3.1000 hc        1 KGR      0.072700
     19 H42         2.3390   -0.5910    3.9610 hc        1 KGR      0.072700
@<TRIPOS>BOND
     1    1    3 1   
     2    2    3 1   
     3    3    4 1   
     4    4    5 1   
     5    4    6 1   
     6    4   14 1   
     7    5   15 1   
     8    6    7 1   
     9    6    8 1   
    10    6   16 1   
    11    7   17 1   
    12    8   10 1   
    13    8   18 1   
    14    8   19 1   
    15    9   10 2   
    16   10   11 1   
    17   11   12 1   
    18   11   13 1   
@<TRIPOS>SUBSTRUCTURE
     1 KGR         1 TEMP              0 ****  ****    0 ROOT
