@<TRIPOS>MOLECULE
KGT
   32    31     1     0     0
SMALL
bcc


@<TRIPOS>ATOM
      1 C01          0.0000     0.0000     0.0000 c3         1 KGT      -0.122400
      2 C02          1.5300     0.0000     0.0000 c3         1 KGT      -0.088400
      3 C03          2.0330     0.0000     1.4210 c          1 KGT       0.563100
      4 O04          1.2450     0.0010     2.3430 o          1 KGT      -0.628100
      5 N05          3.3580     0.0000     1.6660 ns         1 KGT      -0.188900
      6 C06          3.8470     0.0010     3.0460 c3         1 KGT      -0.031300
      7 C07          3.8990    -1.4370     3.5700 c3         1 KGT       0.083700
      8 S08          2.2360    -2.1590     3.5170 sh         1 KGT      -0.361900
      9 C09          5.2290     0.6010     3.0910 c          1 KGT       0.538100
     10 O10          5.7530     0.9900     2.0690 o          1 KGT      -0.689100
     11 N11          5.8820     0.7050     4.2660 ns         1 KGT      -0.143900
     12 C12          7.2240     1.2890     4.3070 c3         1 KGT      -0.074000
     13 C13          7.7280     1.2890     5.7280 c          1 KGT       0.973600
     14 O14          7.0350     0.8470     6.6140 o          1 KGT      -0.894800
     15 O15          8.9450     1.7810     6.0090 o          1 KGT      -0.894800
     16 C16         -0.5030     0.0000    -1.4200 c          1 KGT       0.515100
     17 C17         -1.9680    -0.0010    -1.6910 c          1 KGT       0.895600
     18 O18         -2.4170    -0.0010    -2.9600 o          1 KGT      -0.872800
     19 O19         -2.7560    -0.0000    -0.7690 o          1 KGT      -0.872800
     20 O20          0.2810    -0.0000    -2.3380 o          1 KGT      -0.592100
     21 H1          -0.3610    -0.8850     0.5110 hc         1 KGT       0.049700
     22 H2          -0.3610     0.8840     0.5110 hc         1 KGT       0.049700
     23 H3           1.8910    -0.8840    -0.5110 hc         1 KGT       0.031200
     24 H4           1.8910     0.8840    -0.5110 hc         1 KGT       0.031200
     25 H5           4.0080    -0.0270     0.9050 hn         1 KGT       0.195500
     26 H6           3.1790     0.5870     3.6660 h1         1 KGT       0.074700
     27 H7           4.2600    -1.4360     4.5910 h1         1 KGT       0.034700
     28 H8           4.5680    -2.0230     2.9510 h1         1 KGT       0.034700
     29 H9           2.2430    -3.3320     4.1390 hs         1 KGT       0.136800
     30 H10          5.4300     0.4290     5.1150 hn         1 KGT       0.199500
     31 H11          7.1870     2.3070     3.9370 h1         1 KGT       0.024200
     32 H12          7.8920     0.7040     3.6870 h1         1 KGT       0.024200
@<TRIPOS>BOND
     1     1     2 1   
     2     1    16 1   
     3     1    21 1   
     4     1    22 1   
     5     2     3 1   
     6     2    23 1   
     7     2    24 1   
     8     3     4 2   
     9     3     5 1   
    10     5     6 1   
    11     5    25 1   
    12     6     7 1   
    13     6     9 1   
    14     6    26 1   
    15     7     8 1   
    16     7    27 1   
    17     7    28 1   
    18     8    29 1   
    19     9    10 2   
    20     9    11 1   
    21    11    12 1   
    22    11    30 1   
    23    12    13 1   
    24    12    31 1   
    25    12    32 1   
    26    13    14 1   
    27    13    15 1   
    28    16    17 1   
    29    16    20 2   
    30    17    18 1   
    31    17    19 1   
@<TRIPOS>SUBSTRUCTURE
     1 KGT         1 TEMP              0 ****  ****    0 ROOT
