@<TRIPOS>MOLECULE
KGU
   69    72     1     0     0
SMALL
bcc


@<TRIPOS>ATOM
      1 N            0.0000     0.0000     0.0000 n3         1 KGU      -0.511600
      2 CA          -0.5270    -0.0770    -1.3700 c3         1 KGU       0.084800
      3 C           -0.1700    -1.4130    -1.9700 c          1 KGU       0.556100
      4 O            0.4590    -2.2210    -1.3210 o          1 KGU      -0.624100
      5 CAA          4.4430    -3.7150    -3.0580 c3         1 KGU      -0.017100
      6 CAB         -0.6840    -7.9950    -6.1290 c3         1 KGU      -0.018100
      7 CAC          1.9770     1.2590     3.5140 c3         1 KGU       0.189100
      8 CAG          1.0420    -3.5110    -3.3990 ca         1 KGU      -0.151000
      9 CAH         -0.4530    -4.6510    -5.4520 ca         1 KGU      -0.137000
     10 CAI         -4.4170    -2.4980    -6.9110 c3         1 KGU      -0.027400
     11 CAJ         -3.1790    -1.6130    -7.0770 c3         1 KGU      -0.024900
     12 CAK         -4.4930    -2.9900    -5.4630 c3         1 KGU      -0.024900
     13 CAL          3.4200    -4.6890    -2.4710 c3         1 KGU       0.011000
     14 CAM          0.3460    -7.0290    -6.7180 c3         1 KGU       0.019000
     15 CAN         -1.9320    -2.4090    -6.6850 c3         1 KGU       0.148300
     16 CAO         -3.2080    -3.7470    -5.1180 c3         1 KGU       0.148300
     17 CAP          1.9760     0.0000     1.4440 c3         1 KGU       0.157300
     18 CAQ         -0.0180     1.1820     2.1430 c3         1 KGU       0.157300
     19 CAR          1.4690     0.0000     0.0000 c3         1 KGU       0.140300
     20 CAS         -0.5240     1.1810     0.6990 c3         1 KGU       0.140300
     21 CAW         -0.1230    -2.9010    -3.8280 ca         1 KGU      -0.048400
     22 CAX         -0.8740    -3.4740    -4.8590 ca         1 KGU      -0.023400
     23 CAY          3.0720    -6.4420    -4.1270 c          1 KGU       0.533500
     24 CAZ          2.2750    -7.0490    -5.2300 c          1 KGU       0.533500
     25 CBA          1.4710    -4.6920    -3.9970 ca         1 KGU      -0.079400
     26 CBB          0.7240    -5.2610    -5.0290 ca         1 KGU      -0.118400
     27 NAU         -0.5520    -1.7100    -3.2290 ns         1 KGU      -0.017100
     28 NBC          1.4520     1.1820     2.1440 n3         1 KGU      -0.553600
     29 NBE         -2.0530    -2.8560    -5.2910 nh         1 KGU      -0.406000
     30 NBF          2.6460    -5.2980    -3.5560 n          1 KGU       0.043000
     31 NBG          1.1400    -6.4440    -5.6360 n          1 KGU       0.038000
     32 OAE          4.0960    -6.9740    -3.7460 o          1 KGU      -0.612500
     33 OAF          2.6420    -8.0810    -5.7570 o          1 KGU      -0.614500
     34 H2          -1.6040     0.0340    -1.3490 h1         1 KGU       0.023700
     35 H3          -0.0940     0.7150    -1.9680 h1         1 KGU       0.023700
     36 H4           4.6680    -2.9450    -2.3300 hc         1 KGU       0.012700
     37 H5           4.0370    -3.2600    -3.9530 hc         1 KGU       0.012700
     38 H6           5.3510    -4.2520    -3.3070 hc         1 KGU       0.012700
     39 H7          -0.3200    -9.0120    -6.2200 hc         1 KGU       0.013700
     40 H8          -1.6190    -7.8980    -6.6670 hc         1 KGU       0.013700
     41 H9          -0.8420    -7.7610    -5.0830 hc         1 KGU       0.013700
     42 H10          1.6530     0.3900     4.0750 h1         1 KGU       0.000033
     43 H11          1.6060     2.1570     3.9940 h1         1 KGU       0.000033
     44 H12          3.0600     1.2870     3.4850 h1         1 KGU       0.000033
     45 H13          1.6230    -3.0670    -2.6000 ha         1 KGU       0.176000
     46 H14         -1.0360    -5.0940    -6.2500 ha         1 KGU       0.132000
     47 H15         -5.3050    -1.9240    -7.1440 hc         1 KGU       0.015200
     48 H16         -4.3440    -3.3490    -7.5780 hc         1 KGU       0.015200
     49 H17         -3.2680    -0.7440    -6.4360 hc         1 KGU       0.019950
     50 H18         -3.0960    -1.2990    -8.1110 hc         1 KGU       0.019950
     51 H19         -4.6010    -2.1400    -4.7990 hc         1 KGU       0.019950
     52 H20         -5.3430    -3.6520    -5.3510 hc         1 KGU       0.019950
     53 H21          2.7520    -4.1530    -1.8070 h1         1 KGU       0.050700
     54 H22          3.9360    -5.4630    -1.9160 h1         1 KGU       0.050700
     55 H23          0.9990    -7.5660    -7.3960 h1         1 KGU       0.040700
     56 H24         -0.1650    -6.2410    -7.2580 h1         1 KGU       0.040700
     57 H25         -1.0570    -1.7790    -6.7860 h1         1 KGU       0.013700
     58 H26         -1.8390    -3.2720    -7.3330 h1         1 KGU       0.013700
     59 H27         -3.1060    -4.6010    -5.7760 h1         1 KGU       0.013700
     60 H28         -3.2540    -4.0810    -4.0880 h1         1 KGU       0.013700
     61 H29          1.6340    -0.8970     1.9460 h1         1 KGU       0.015700
     62 H30          3.0590     0.0310     1.4460 h1         1 KGU       0.015700
     63 H31         -0.3790     2.0680     2.6510 h1         1 KGU       0.015700
     64 H32         -0.3790     0.2960     2.6510 h1         1 KGU       0.015700
     65 H33          1.8290     0.8860    -0.5080 h1         1 KGU       0.018950
     66 H34          1.8290    -0.8860    -0.5080 h1         1 KGU       0.018950
     67 H35         -1.6070     1.1500     0.6970 h1         1 KGU       0.018950
     68 H36         -0.1820     2.0780     0.1970 h1         1 KGU       0.018950
     69 H37         -1.1620    -1.0910    -3.7250 hn         1 KGU       0.183500
@<TRIPOS>BOND
     1     1     2 1   
     2     1    19 1   
     3     1    20 1   
     4     2     3 1   
     5     2    34 1   
     6     2    35 1   
     7     3     4 2   
     8     3    27 1   
     9     5    13 1   
    10     5    36 1   
    11     5    37 1   
    12     5    38 1   
    13     6    14 1   
    14     6    39 1   
    15     6    40 1   
    16     6    41 1   
    17     7    28 1   
    18     7    42 1   
    19     7    43 1   
    20     7    44 1   
    21     8    21 ar  
    22     8    25 ar  
    23     8    45 1   
    24     9    22 ar  
    25     9    26 ar  
    26     9    46 1   
    27    10    11 1   
    28    10    12 1   
    29    10    47 1   
    30    10    48 1   
    31    11    15 1   
    32    11    49 1   
    33    11    50 1   
    34    12    16 1   
    35    12    51 1   
    36    12    52 1   
    37    13    30 1   
    38    13    53 1   
    39    13    54 1   
    40    14    31 1   
    41    14    55 1   
    42    14    56 1   
    43    15    29 1   
    44    15    57 1   
    45    15    58 1   
    46    16    29 1   
    47    16    59 1   
    48    16    60 1   
    49    17    19 1   
    50    17    28 1   
    51    17    61 1   
    52    17    62 1   
    53    18    20 1   
    54    18    28 1   
    55    18    63 1   
    56    18    64 1   
    57    19    65 1   
    58    19    66 1   
    59    20    67 1   
    60    20    68 1   
    61    21    22 ar  
    62    21    27 1   
    63    22    29 1   
    64    23    24 1   
    65    23    30 1   
    66    23    32 2   
    67    24    31 1   
    68    24    33 2   
    69    25    26 ar  
    70    25    30 1   
    71    26    31 1   
    72    27    69 1   
@<TRIPOS>SUBSTRUCTURE
     1 KGU         1 TEMP              0 ****  ****    0 ROOT
