@<TRIPOS>MOLECULE
molecule
   69    72     1     0     0
SMALL
bcc


@<TRIPOS>ATOM
      1 N            0.0000     0.0000     0.0000 n3         1 KGU      -0.709600
      2 CA          -0.5270    -0.0770    -1.3700 c3         1 KGU       0.090800
      3 C           -0.1700    -1.4130    -1.9700 c          1 KGU       0.657100
      4 O            0.4590    -2.2210    -1.3210 o          1 KGU      -0.586100
      5 CAA          4.4430    -3.7150    -3.0580 c3         1 KGU      -0.116100
      6 CAB         -0.6840    -7.9950    -6.1290 c3         1 KGU      -0.116100
      7 CAC          1.9770     1.2590     3.5140 c3         1 KGU       0.153100
      8 CAG          1.0420    -3.5110    -3.3990 ca         1 KGU      -0.161000
      9 CAH         -0.4530    -4.6510    -5.4520 ca         1 KGU      -0.158000
     10 CAI         -4.4170    -2.4980    -6.9110 c3         1 KGU      -0.083400
     11 CAJ         -3.1790    -1.6130    -7.0770 c3         1 KGU      -0.080400
     12 CAK         -4.4930    -2.9900    -5.4630 c3         1 KGU      -0.080400
     13 CAL          3.4200    -4.6890    -2.4710 c3         1 KGU       0.090000
     14 CAM          0.3460    -7.0290    -6.7180 c3         1 KGU       0.096000
     15 CAN         -1.9320    -2.4090    -6.6850 c3         1 KGU       0.168300
     16 CAO         -3.2080    -3.7470    -5.1180 c3         1 KGU       0.168300
     17 CAP          1.9760     0.0000     1.4440 c3         1 KGU       0.165800
     18 CAQ         -0.0180     1.1820     2.1430 c3         1 KGU       0.165800
     19 CAR          1.4690     0.0000     0.0000 c3         1 KGU       0.160300
     20 CAS         -0.5240     1.1810     0.6990 c3         1 KGU       0.160300
     21 CAW         -0.1230    -2.9010    -3.8280 ca         1 KGU       0.093600
     22 CAX         -0.8740    -3.4740    -4.8590 ca         1 KGU       0.045600
     23 CAY          3.0720    -6.4420    -4.1270 c          1 KGU       0.631500
     24 CAZ          2.2750    -7.0490    -5.2300 c          1 KGU       0.629500
     25 CBA          1.4710    -4.6920    -3.9970 ca         1 KGU       0.047600
     26 CBB          0.7240    -5.2610    -5.0290 ca         1 KGU       0.010600
     27 NAU         -0.5520    -1.7100    -3.2290 ns         1 KGU      -0.462100
     28 NBC          1.4520     1.1820     2.1440 n3         1 KGU      -0.736600
     29 NBE         -2.0530    -2.8560    -5.2910 nh         1 KGU      -0.622000
     30 NBF          2.6460    -5.2980    -3.5560 n          1 KGU      -0.354000
     31 NBG          1.1400    -6.4440    -5.6360 n          1 KGU      -0.358000
     32 OAE          4.0960    -6.9740    -3.7460 o          1 KGU      -0.574500
     33 OAF          2.6420    -8.0810    -5.7570 o          1 KGU      -0.576500
     34 H2          -1.6040     0.0340    -1.3490 h1         1 KGU       0.054700
     35 H3          -0.0940     0.7150    -1.9680 h1         1 KGU       0.054700
     36 H4           4.6680    -2.9450    -2.3300 hc         1 KGU       0.046367
     37 H5           4.0370    -3.2600    -3.9530 hc         1 KGU       0.046367
     38 H6           5.3510    -4.2520    -3.3070 hc         1 KGU       0.046367
     39 H7          -0.3200    -9.0120    -6.2200 hc         1 KGU       0.047700
     40 H8          -1.6190    -7.8980    -6.6670 hc         1 KGU       0.047700
     41 H9          -0.8420    -7.7610    -5.0830 hc         1 KGU       0.047700
     42 H10          1.6530     0.3900     4.0750 h1         1 KGU       0.032367
     43 H11          1.6060     2.1570     3.9940 h1         1 KGU       0.032367
     44 H12          3.0600     1.2870     3.4850 h1         1 KGU       0.032367
     45 H13          1.6230    -3.0670    -2.6000 ha         1 KGU       0.187000
     46 H14         -1.0360    -5.0940    -6.2500 ha         1 KGU       0.148000
     47 H15         -5.3050    -1.9240    -7.1440 hc         1 KGU       0.043200
     48 H16         -4.3440    -3.3490    -7.5780 hc         1 KGU       0.043200
     49 H17         -3.2680    -0.7440    -6.4360 hc         1 KGU       0.049450
     50 H18         -3.0960    -1.2990    -8.1110 hc         1 KGU       0.049450
     51 H19         -4.6010    -2.1400    -4.7990 hc         1 KGU       0.049450
     52 H20         -5.3430    -3.6520    -5.3510 hc         1 KGU       0.049450
     53 H21          2.7520    -4.1530    -1.8070 h1         1 KGU       0.075700
     54 H22          3.9360    -5.4630    -1.9160 h1         1 KGU       0.075700
     55 H23          0.9990    -7.5660    -7.3960 h1         1 KGU       0.065700
     56 H24         -0.1650    -6.2410    -7.2580 h1         1 KGU       0.065700
     57 H25         -1.0570    -1.7790    -6.7860 h1         1 KGU       0.039700
     58 H26         -1.8390    -3.2720    -7.3330 h1         1 KGU       0.039700
     59 H27         -3.1060    -4.6010    -5.7760 h1         1 KGU       0.039700
     60 H28         -3.2540    -4.0810    -4.0880 h1         1 KGU       0.039700
     61 H29          1.6340    -0.8970     1.9460 h1         1 KGU       0.043700
     62 H30          3.0590     0.0310     1.4460 h1         1 KGU       0.043700
     63 H31         -0.3790     2.0680     2.6510 h1         1 KGU       0.043700
     64 H32         -0.3790     0.2960     2.6510 h1         1 KGU       0.043700
     65 H33          1.8290     0.8860    -0.5080 h1         1 KGU       0.044450
     66 H34          1.8290    -0.8860    -0.5080 h1         1 KGU       0.044450
     67 H35         -1.6070     1.1500     0.6970 h1         1 KGU       0.044450
     68 H36         -0.1820     2.0780     0.1970 h1         1 KGU       0.044450
     69 H37         -1.1620    -1.0910    -3.7250 hn         1 KGU       0.341500
@<TRIPOS>BOND
     1    33    24 2
     2    32    23 2
     3    24    23 1
     4    24    31 1
     5     6    14 1
     6    23    30 1
     7    14    31 1
     8     5    13 1
     9    31    26 1
    10    30    13 1
    11    30    25 1
    12    26    25 ar
    13    26     9 ar
    14    25     8 ar
    15     9    22 ar
    16     8    21 ar
    17    22    21 ar
    18    22    29 1
    19    21    27 1
    20    16    29 1
    21    16    12 1
    22    29    15 1
    23     4     3 2
    24    27     3 1
    25    12    10 1
    26     3     2 1
    27    19    17 1
    28    19     1 1
    29    17    28 1
    30    15    11 1
    31    10    11 1
    32     2     1 1
    33     1    20 1
    34    28     7 1
    35    28    18 1
    36    20    18 1
    37     2    34 1
    38     2    35 1
    39     5    36 1
    40     5    37 1
    41     5    38 1
    42     6    39 1
    43     6    40 1
    44     6    41 1
    45     7    42 1
    46     7    43 1
    47     7    44 1
    48     8    45 1
    49     9    46 1
    50    10    47 1
    51    10    48 1
    52    11    49 1
    53    11    50 1
    54    12    51 1
    55    12    52 1
    56    13    53 1
    57    13    54 1
    58    14    55 1
    59    14    56 1
    60    15    57 1
    61    15    58 1
    62    16    59 1
    63    16    60 1
    64    17    61 1
    65    17    62 1
    66    18    63 1
    67    18    64 1
    68    19    65 1
    69    19    66 1
    70    20    67 1
    71    20    68 1
    72    27    69 1
@<TRIPOS>SUBSTRUCTURE
     1 KGU         1 TEMP              0 ****  ****    0 ROOT
