@<TRIPOS>MOLECULE
molecule
   57    60     1     0     0
SMALL
bcc


@<TRIPOS>ATOM
      1 CBC          0.0000     0.0000     0.0000 c3         1 KGW       0.126300
      2 CBE          1.5310     0.0000     0.0000 c3         1 KGW       0.136400
      3 OBG          2.0020     0.0000     1.3490 os         1 KGW      -0.423600
      4 CBF          1.5500     1.1180     2.1180 c3         1 KGW       0.136400
      5 CBD          0.0190     1.1290     2.1400 c3         1 KGW       0.126300
      6 NBB         -0.4850     1.1620     0.7580 nh         1 KGW      -0.595000
      7 CBA         -1.8830     1.2280     0.7370 ca         1 KGW       0.126600
      8 CAY         -2.5390     2.2580     1.3980 ca         1 KGW      -0.232000
      9 CAS         -3.9220     2.3220     1.3760 ca         1 KGW       0.136100
     10 OAT         -4.5670     3.3290     2.0220 os         1 KGW      -0.331900
     11 CAU         -3.7560     4.2870     2.7050 c3         1 KGW       0.130700
     12 CAX         -2.6120     0.2680     0.0490 ca         1 KGW      -0.206000
     13 CAR         -3.9930     0.3310     0.0240 ca         1 KGW      -0.066000
     14 CAL         -4.6530     1.3530     0.6900 ca         1 KGW       0.099600
     15 NAH         -6.0540     1.4170     0.6650 nu         1 KGW      -0.730300
     16 C2          -6.7430     1.0200    -0.4630 ca         1 KGW       0.994900
     17 N3          -8.0630     1.1640    -0.5220 nb         1 KGW      -0.883000
     18 N1          -6.0860     0.4980    -1.4970 nb         1 KGW      -0.878000
     19 C6          -6.7450     0.1180    -2.5770 ca         1 KGW       0.770900
     20 C4          -8.7220     0.7810    -1.6090 ca         1 KGW       0.991900
     21 NAE        -10.0950     0.9290    -1.6750 nu         1 KGW      -0.727300
     22 CAJ        -10.7990     0.4150    -2.7590 ca         1 KGW       0.226600
     23 CAQ        -10.2850    -0.6560    -3.4800 ca         1 KGW      -0.152000
     24 CAW        -10.9860    -1.1640    -4.5550 ca         1 KGW      -0.086000
     25 CAZ        -12.2030    -0.6130    -4.9230 ca         1 KGW      -0.165000
     26 CAV        -12.7280     0.4490    -4.2200 ca         1 KGW      -0.085000
     27 CAP        -12.0330     0.9720    -3.1260 ca         1 KGW      -0.200600
     28 CAO        -12.5920     2.1050    -2.3660 c          1 KGW       0.684700
     29 OAI        -11.9390     2.6240    -1.4800 o          1 KGW      -0.629100
     30 NAN        -13.8260     2.5650    -2.6510 ns         1 KGW      -0.581900
     31 NAQ         -8.0590     0.2550    -2.6370 nb         1 KGW      -0.882000
     32 CAM        -14.3810     3.6910    -1.8950 c3         1 KGW       0.103300
     33 HBC1        -0.3600     0.0590    -1.0200 h1         1 KGW       0.051950
     34 HBC2        -0.3610    -0.9100     0.4650 h1         1 KGW       0.051950
     35 HBE1         1.8910    -0.8860    -0.5080 h1         1 KGW       0.055450
     36 HBE2         1.8910     0.8860    -0.5080 h1         1 KGW       0.055450
     37 HBF1         1.9240     1.0340     3.1310 h1         1 KGW       0.055450
     38 HBF2         1.9110     2.0350     1.6680 h1         1 KGW       0.055450
     39 HBD1        -0.3280     2.0080     2.6710 h1         1 KGW       0.051950
     40 HBD2        -0.3420     0.2350     2.6340 h1         1 KGW       0.051950
     41 HAY         -1.9680     3.0430     1.8780 ha         1 KGW       0.145000
     42 HAX         -2.0980    -0.5320    -0.4710 ha         1 KGW       0.140000
     43 HAU1        -3.1780     3.7880     3.4740 h1         1 KGW       0.042367
     44 HAU2        -3.0840     4.7600     1.9990 h1         1 KGW       0.042367
     45 HAU3        -4.3900     5.0380     3.1600 h1         1 KGW       0.042367
     46 HAR         -4.5590    -0.4210    -0.5110 ha         1 KGW       0.172000
     47 HAH         -6.5550     1.7230     1.4750 hn         1 KGW       0.476800
     48 H6          -6.2080    -0.3090    -3.4150 h5         1 KGW       0.061100
     49 HAE        -10.5880     1.3630    -0.9200 hn         1 KGW       0.503800
     50 HAQ         -9.3340    -1.0920    -3.1990 ha         1 KGW       0.178000
     51 HAW        -10.5820    -1.9990    -5.1150 ha         1 KGW       0.134000
     52 HAZ        -12.7440    -1.0180    -5.7700 ha         1 KGW       0.131000
     53 HAV        -13.6800     0.8750    -4.5110 ha         1 KGW       0.124000
     54 HAN        -14.3670     2.1320    -3.3730 hn         1 KGW       0.316500
     55 HAM1       -13.7440     4.5590    -2.0200 h1         1 KGW       0.043367
     56 HAM2       -14.4350     3.4310    -0.8450 h1         1 KGW       0.043367
     57 HAM3       -15.3750     3.9180    -2.2630 h1         1 KGW       0.043367
@<TRIPOS>BOND
     1     1     2 1
     2     1     6 1
     3     2     3 1
     4     3     4 1
     5     4     5 1
     6     5     6 1
     7     6     7 1
     8     7     8 ar
     9     7    12 ar
    10     8     9 ar
    11     9    10 1
    12     9    14 ar
    13    10    11 1
    14    12    13 ar
    15    13    14 ar
    16    14    15 1
    17    15    16 1
    18    16    17 ar
    19    16    18 ar
    20    17    20 ar
    21    18    19 ar
    22    19    31 ar
    23    20    21 1
    24    20    31 ar
    25    21    22 1
    26    22    23 ar
    27    22    27 ar
    28    23    24 ar
    29    24    25 ar
    30    25    26 ar
    31    26    27 ar
    32    27    28 1
    33    28    29 2
    34    28    30 1
    35    30    32 1
    36     1    33 1
    37     1    34 1
    38     2    35 1
    39     2    36 1
    40     4    37 1
    41     4    38 1
    42     5    39 1
    43     5    40 1
    44     8    41 1
    45    12    42 1
    46    11    43 1
    47    11    44 1
    48    11    45 1
    49    13    46 1
    50    15    47 1
    51    19    48 1
    52    21    49 1
    53    23    50 1
    54    24    51 1
    55    25    52 1
    56    26    53 1
    57    30    54 1
    58    32    55 1
    59    32    56 1
    60    32    57 1
@<TRIPOS>SUBSTRUCTURE
     1 KGW         1 TEMP              0 ****  ****    0 ROOT
