@<TRIPOS>MOLECULE
KGY
   63    63     1     0     0
SMALL
bcc


@<TRIPOS>ATOM
      1 S1          0.0460    2.3220    1.7180 sy        1 KGY      1.610200
      2 C2          0.8730    2.1590    0.3340 cc        1 KGY     -0.725100
      3 O3          0.1370    3.6880    2.1940 o         1 KGY     -0.742800
      4 O4         -1.3440    2.0760    1.5340 o         1 KGY     -0.742800
      5 C5          0.4750    1.3310   -0.8310 cc        1 KGY      0.426600
      6 C6          2.0590    2.7700   -0.1040 cd        1 KGY      0.496000
      7 N7          1.3760    1.5020   -1.8120 nd        1 KGY     -0.335300
      8 C8         -0.7120    0.4550   -0.8910 c3        1 KGY     -0.168400
      9 O9          2.3130    2.3460   -1.4030 os        1 KGY     -0.084100
     10 C10         3.0170    3.6990    0.4920 c3        1 KGY     -0.204400
     11 N11         0.6980    1.2900    2.7730 nh        1 KGY     -0.677300
     12 C12         1.5200    1.7500    3.8190 c2        1 KGY      0.016000
     13 C13         2.4080    1.0290    4.5140 c2        1 KGY     -0.224000
     14 C14         1.0460   -2.3240    1.6890 c2        1 KGY     -0.195200
     15 C15         1.4820   -0.9130    1.8280 c3        1 KGY     -0.073200
     16 C16         0.4540   -0.1330    2.6520 c3        1 KGY      0.204800
     17 C17        -1.4660    5.6540    2.1350 c         1 KGY      0.552100
     18 C18         1.8280   -3.3690    1.9510 c2        1 KGY     -0.182000
     19 O19        -1.7820    6.2810    1.1430 o         1 KGY     -0.428100
     20 N20        -2.5150    4.6350    2.6020 n4        1 KGY     -0.477300
     21 S21         0.2090    5.7050    3.3130 sy        1 KGY      1.461100
     22 O22         1.3160    5.6870    2.5030 o         1 KGY     -0.604800
     23 O23        -0.1270    4.7620    4.2670 o         1 KGY     -0.604800
     24 C24        -0.1460    7.1920    3.8070 ca        1 KGY     -0.587500
     25 C25        -0.8680    7.4290    4.9970 ca        1 KGY      0.046500
     26 C26        -1.1280    8.7050    5.4580 ca        1 KGY     -0.217500
     27 C27        -0.6630    9.8150    4.7210 ca        1 KGY      0.256100
     28 C28         0.0690    9.6100    3.5220 ca        1 KGY     -0.217500
     29 C29         0.3140    8.3260    3.0910 ca        1 KGY      0.046500
     30 O30        -0.8540   11.1130    5.0590 os        1 KGY     -0.292900
     31 C31        -1.5860   11.3700    6.2900 c3        1 KGY      0.231500
     32 C32        -1.6560   12.7910    6.4420 c1        1 KGY     -0.210100
     33 C33        -1.7240   13.9780    6.5860 c1        1 KGY     -0.024100
     34 C34        -1.8140   15.3880    6.7720 c3        1 KGY     -0.041000
     35 O35        -3.8000    5.0210    2.4260 oh        1 KGY     -0.381300
     36 H81        -0.9000    0.0900   -1.9320 hc        1 KGY      0.083033
     37 H82        -1.6170    1.0100   -0.5350 hc        1 KGY      0.083033
     38 H83        -0.5500   -0.4350   -0.2280 hc        1 KGY      0.083033
     39 H101        3.7160    3.1360    1.1650 hc        1 KGY      0.107033
     40 H102        2.4790    4.4790    1.0970 hc        1 KGY      0.107033
     41 H103        3.6250    4.2050   -0.3020 hc        1 KGY      0.107033
     42 H121        2.6190   -0.0340    4.3400 ha        1 KGY      0.138000
     43 H122        1.3360    2.8200    4.0680 h4        1 KGY      0.158000
     44 H131        2.9740    1.4930    5.3330 ha        1 KGY      0.138000
     45 H132        0.0140   -2.4610    1.3250 ha        1 KGY      0.123000
     46 H151        1.5790   -0.4610    0.8020 hc        1 KGY      0.056200
     47 H152        0.4120   -0.5770    3.6890 h1        1 KGY      0.075700
     48 H161       -0.5690   -0.2650    2.1850 h1        1 KGY      0.075700
     49 H162        2.4920   -0.8500    2.3150 hc        1 KGY      0.056200
     50 H181        1.4840   -4.4030    1.8150 ha        1 KGY      0.123000
     51 H182        2.8610   -3.2680    2.3120 ha        1 KGY      0.123000
     52 HN20       -2.3580    3.7240    2.1130 hn        1 KGY      0.483300
     53 H25        -1.2220    6.5620    5.5870 ha        1 KGY      0.160000
     54 H26        -1.6890    8.8460    6.3940 ha        1 KGY      0.173000
     55 H28         0.4300   10.4860    2.9600 ha        1 KGY      0.173000
     56 H29         0.8940    8.1680    2.1620 ha        1 KGY      0.160000
     57 H311       -2.6120   10.9190    6.1940 h1        1 KGY      0.067700
     58 H312       -1.0240   10.8970    7.1430 h1        1 KGY      0.067700
     59 H341       -2.8870   15.7090    6.8390 hc        1 KGY      0.072033
     60 H342       -1.2900   15.6950    7.7150 hc        1 KGY      0.072033
     61 H343       -1.3360   15.9250    5.9100 hc        1 KGY      0.072033
     62 HO35       -3.8660    5.4630    1.5480 ho        1 KGY      0.468000
     63 H202       -2.4020    4.4740    3.6200 hn        1 KGY      0.483300
@<TRIPOS>BOND
     1    1    2 1
     2    1    3 2
     3    1    4 2
     4    1   11 1
     5    2    5 1
     6    2    6 2
     7    5    7 2
     8    5    8 1
     9    6    9 1
    10    6   10 1
    11    7    9 1
    12    8   36 1
    13    8   37 1
    14    8   38 1
    15   10   39 1
    16   10   40 1
    17   10   41 1
    18   11   12 1
    19   11   16 1
    20   12   13 2
    21   12   43 1
    22   13   42 1
    23   13   44 1
    24   14   15 1
    25   14   18 2
    26   14   45 1
    27   15   16 1
    28   15   46 1
    29   15   49 1
    30   16   47 1
    31   16   48 1
    32   17   19 2
    33   17   20 1
    34   17   21 1
    35   18   50 1
    36   18   51 1
    37   20   35 1
    38   20   52 1
    39   20   63 1
    40   21   22 2
    41   21   23 2
    42   21   24 1
    43   24   25 ar
    44   24   29 ar
    45   25   26 ar
    46   25   53 1
    47   26   27 ar
    48   26   54 1
    49   27   28 ar
    50   27   30 1
    51   28   29 ar
    52   28   55 1
    53   29   56 1
    54   30   31 1
    55   31   32 1
    56   31   57 1
    57   31   58 1
    58   32   33 3
    59   33   34 1
    60   34   59 1
    61   34   60 1
    62   34   61 1
    63   35   62 1
@<TRIPOS>SUBSTRUCTURE
     1 KGY         1 TEMP              0 ****  ****    0 ROOT
