@<TRIPOS>MOLECULE
molecule
   81    83     1     0     0
SMALL
bcc


@<TRIPOS>ATOM
      1 O2           0.0000     0.0000     0.0000 oh         1 KH1      -0.610800
      2 C1           3.4590     1.1780    -0.8740 c3         1 KH1       0.188300
      3 C2           1.9350     1.2450    -0.7290 c3         1 KH1      -0.099400
      4 C3           1.4290     0.0000     0.0000 c3         1 KH1       0.152100
      5 C4           1.9400     0.0000     1.4430 c3         1 KH1      -0.045200
      6 C5           3.4550     0.0570     1.4150 ce         1 KH1      -0.082200
      7 C6           4.2070    -0.7610     2.1790 cf         1 KH1      -0.118000
      8 C7           5.6670    -0.6750     2.1240 cf         1 KH1      -0.163000
      9 C8           6.4110    -1.4820     2.8790 c2         1 KH1      -0.091400
     10 C9           5.8010    -2.5120     3.8190 c3         1 KH1      -0.045200
     11 C10          4.0660     1.0550     0.5140 ce         1 KH1      -0.085200
     12 C11          6.4330    -3.8850     3.6010 c3         1 KH1      -0.078400
     13 C12          7.9690    -3.8090     3.5790 c3         1 KH1      -0.060400
     14 C13          8.3760    -2.8720     2.4710 c3         1 KH1      -0.051000
     15 C14          7.9110    -1.4410     2.8650 c3         1 KH1      -0.039500
     16 C15          8.5640    -0.6010     1.7660 c3         1 KH1      -0.078400
     17 C16          9.9800    -1.2320     1.6480 c3         1 KH1      -0.079400
     18 C17          9.8540    -2.6850     2.1710 c3         1 KH1      -0.055700
     19 C18          7.6460    -3.2640     1.1860 c3         1 KH1      -0.095100
     20 C19          5.0990     1.8050     0.8930 c2         1 KH1      -0.209000
     21 O1           3.8180     0.0430    -1.6640 oh         1 KH1      -0.598800
     22 C20         10.3080    -3.6770     1.0980 c3         1 KH1       0.131100
     23 O4          10.1230    -5.0110     1.5730 os         1 KH1      -0.404600
     24 C22          9.8650    -5.8260     0.4280 c3         1 KH1       0.121400
     25 C23          9.6560    -7.2760     0.8710 c3         1 KH1      -0.083400
     26 C25          9.2980    -9.6150     0.0710 c3         1 KH1       0.154800
     27 O3          10.5670   -10.0370     0.5740 oh         1 KH1      -0.601800
     28 C26          8.9170   -10.4760    -1.1350 c3         1 KH1      -0.110400
     29 C27          8.2380    -9.7690     1.1620 c3         1 KH1      -0.110400
     30 C21         11.7880    -3.4480     0.7850 c3         1 KH1      -0.121100
     31 C24          9.3800    -8.1480    -0.3550 c3         1 KH1      -0.070400
     32 C28          8.1550   -11.2370     1.5890 c3         1 KH1      -0.097100
     33 C29          9.9610   -10.2970    -2.2390 c3         1 KH1      -0.097100
     34 HO2         -0.3140    -0.7990    -0.3890 ho         1 KH1       0.401000
     35 HC1          3.8170     2.0850    -1.3460 h1         1 KH1       0.036700
     36 HC21         1.4830     1.2940    -1.7120 hc         1 KH1       0.056700
     37 HC22         1.6680     2.1280    -0.1590 hc         1 KH1       0.056700
     38 HC3          1.7930    -0.8850    -0.5080 h1         1 KH1       0.052700
     39 HC41         1.5530     0.8670     1.9660 hc         1 KH1       0.057200
     40 HC42         1.6200    -0.9070     1.9420 hc         1 KH1       0.057200
     41 HC6          3.7310    -1.4810     2.8340 ha         1 KH1       0.134000
     42 HC7          6.1430     0.0450     1.4690 ha         1 KH1       0.145000
     43 HC91         5.9690    -2.2020     4.8430 hc         1 KH1       0.048700
     44 HC92         4.7360    -2.5780     3.6300 hc         1 KH1       0.048700
     45 H111         6.1260    -4.5450     4.4040 hc         1 KH1       0.042200
     46 H112         6.0870    -4.2850     2.6560 hc         1 KH1       0.042200
     47 H121         8.3800    -4.7940     3.3930 hc         1 KH1       0.051200
     48 H122         8.3280    -3.4290     4.5280 hc         1 KH1       0.051200
     49 H14          8.2990    -1.1690     3.8390 hc         1 KH1       0.066700
     50 H151         8.6320     0.4370     2.0680 hc         1 KH1       0.048700
     51 H152         8.0220    -0.7020     0.8330 hc         1 KH1       0.048700
     52 H161        10.6850    -0.6780     2.2570 hc         1 KH1       0.044200
     53 H162        10.2990    -1.2370     0.6120 hc         1 KH1       0.044200
     54 H17         10.4370    -2.8080     3.0750 hc         1 KH1       0.065700
     55 H181         8.1450    -2.8150     0.3350 hc         1 KH1       0.040033
     56 H182         7.6530    -4.3430     1.0810 hc         1 KH1       0.040033
     57 H183         6.6220    -2.9130     1.2300 hc         1 KH1       0.040033
     58 H191         5.5250     2.5270     0.2070 ha         1 KH1       0.122000
     59 H192         5.5110     1.6960     1.8890 ha         1 KH1       0.122000
     60 HO1          4.1930     0.3330    -2.4790 ho         1 KH1       0.400000
     61 H20          9.7220    -3.5300     0.1990 h1         1 KH1       0.046700
     62 H221         8.9740    -5.4700    -0.0750 h1         1 KH1       0.024200
     63 H222        10.7080    -5.7740    -0.2500 h1         1 KH1       0.024200
     64 H231        10.5470    -7.6320     1.3740 hc         1 KH1       0.061700
     65 H232         8.8120    -7.3290     1.5490 hc         1 KH1       0.061700
     66 HO3         10.6990   -10.9470     0.3690 ho         1 KH1       0.403000
     67 H261         8.8800   -11.5170    -0.8390 hc         1 KH1       0.051200
     68 H262         7.9450   -10.1700    -1.5040 hc         1 KH1       0.051200
     69 H271         8.5070    -9.1600     2.0160 hc         1 KH1       0.051200
     70 H272         7.2760    -9.4500     0.7790 hc         1 KH1       0.051200
     71 H211        12.1710    -2.6520     1.4120 hc         1 KH1       0.041367
     72 H212        12.3430    -4.3580     0.9760 hc         1 KH1       0.041367
     73 H213        11.8980    -3.1710    -0.2570 hc         1 KH1       0.041367
     74 H241        10.1810    -8.0250    -1.0730 hc         1 KH1       0.048700
     75 H242         8.4410    -7.8500    -0.8060 hc         1 KH1       0.048700
     76 H281         7.6070   -11.3120     2.5200 hc         1 KH1       0.036367
     77 H282         7.6430   -11.8070     0.8230 hc         1 KH1       0.036367
     78 H283         9.1550   -11.6310     1.7250 hc         1 KH1       0.036367
     79 H291        10.9300   -10.1070    -1.7930 hc         1 KH1       0.036367
     80 H292        10.0110   -11.1980    -2.8390 hc         1 KH1       0.036367
     81 H293         9.6830    -9.4600    -2.8670 hc         1 KH1       0.036367
@<TRIPOS>BOND
     1     1     4 1
     2     1    34 1
     3     2     3 1
     4     2    11 1
     5     2    21 1
     6     2    35 1
     7     3     4 1
     8     3    36 1
     9     3    37 1
    10     4     5 1
    11     4    38 1
    12     5     6 1
    13     5    39 1
    14     5    40 1
    15     6     7 2
    16     6    11 1
    17     7     8 1
    18     7    41 1
    19     8     9 2
    20     8    42 1
    21     9    10 1
    22     9    15 1
    23    10    12 1
    24    10    43 1
    25    10    44 1
    26    11    20 2
    27    12    13 1
    28    12    45 1
    29    12    46 1
    30    13    14 1
    31    13    47 1
    32    13    48 1
    33    14    15 1
    34    14    18 1
    35    14    19 1
    36    15    16 1
    37    15    49 1
    38    16    17 1
    39    16    50 1
    40    16    51 1
    41    17    18 1
    42    17    52 1
    43    17    53 1
    44    18    22 1
    45    18    54 1
    46    19    55 1
    47    19    56 1
    48    19    57 1
    49    20    58 1
    50    20    59 1
    51    21    60 1
    52    22    23 1
    53    22    30 1
    54    22    61 1
    55    23    24 1
    56    24    25 1
    57    24    62 1
    58    24    63 1
    59    25    31 1
    60    25    64 1
    61    25    65 1
    62    26    27 1
    63    26    28 1
    64    26    29 1
    65    26    31 1
    66    27    66 1
    67    28    33 1
    68    28    67 1
    69    28    68 1
    70    29    32 1
    71    29    69 1
    72    29    70 1
    73    30    71 1
    74    30    72 1
    75    30    73 1
    76    31    74 1
    77    31    75 1
    78    32    76 1
    79    32    77 1
    80    32    78 1
    81    33    79 1
    82    33    80 1
    83    33    81 1
@<TRIPOS>SUBSTRUCTURE
     1 KH1         1 TEMP              0 ****  ****    0 ROOT
