@<TRIPOS>MOLECULE
KH1
   81    83     1     0     0
SMALL
bcc


@<TRIPOS>ATOM
      1 O2         -0.3080    1.0270    0.2620 oh        1 KH1     -0.599800
      2 C1          3.1350    2.5520    0.0690 c3        1 KH1      0.186300
      3 C2          1.6110    2.5070    0.1070 c3        1 KH1     -0.146400
      4 C3          1.1090    1.0680    0.1440 c3        1 KH1      0.146100
      5 C4          1.6630    0.3350    1.3630 c3        1 KH1     -0.035200
      6 C5          3.1550    0.3920    1.3850 ce        1 KH1     -0.075200
      7 C6          3.8720   -0.7280    1.6160 cf        1 KH1     -0.107000
      8 C7          5.3140   -0.8020    1.6250 cf        1 KH1     -0.153000
      9 C8          6.0480   -1.7390    2.2490 c2        1 KH1     -0.078400
     10 C9          5.4970   -2.8150    3.1290 c3        1 KH1     -0.044200
     11 C10         3.7440    1.7110    1.1640 ce        1 KH1     -0.069200
     12 C11         6.0940   -4.1910    2.8780 c3        1 KH1     -0.073400
     13 C12         7.6040   -4.1960    2.7190 c3        1 KH1     -0.065400
     14 C13         8.0370   -3.1500    1.7040 c3        1 KH1     -0.032000
     15 C14         7.5340   -1.7720    2.2100 c3        1 KH1     -0.038500
     16 C15         8.3310   -0.7670    1.3890 c3        1 KH1     -0.073400
     17 C16         9.6870   -1.4430    1.1590 c3        1 KH1     -0.076400
     18 C17         9.5570   -2.9050    1.6240 c3        1 KH1     -0.060700
     19 C18         7.4780   -3.4810    0.3310 c3        1 KH1     -0.083100
     20 C19         4.7580    2.1900    1.8940 c2        1 KH1     -0.193000
     21 O1          3.6430    2.0650   -1.1710 oh        1 KH1     -0.589800
     22 C20        10.3310   -3.8570    0.7130 c3        1 KH1      0.149100
     23 O4         10.0970   -5.1820    1.2090 os        1 KH1     -0.423600
     24 C22        10.2480   -6.1880    0.2110 c3        1 KH1      0.131400
     25 C23         9.9870   -7.5170    0.9000 c3        1 KH1     -0.083400
     26 C25         9.9320  -10.0290    0.5150 c3        1 KH1      0.153800
     27 O3         11.2330  -10.1870    1.0840 oh        1 KH1     -0.597800
     28 C26         9.6940  -11.0990   -0.5590 c3        1 KH1     -0.108900
     29 C27         8.8620  -10.1220    1.6110 c3        1 KH1     -0.108900
     30 C21        11.8210   -3.5590    0.7540 c3        1 KH1     -0.122100
     31 C24         9.9280   -8.6320   -0.1200 c3        1 KH1     -0.066400
     32 C28         8.6280  -11.5140    2.1350 c3        1 KH1     -0.093600
     33 C29        10.6560  -11.0020   -1.7140 c3        1 KH1     -0.093600
     34 HO2        -0.6630    1.4770   -0.5140 ho        1 KH1      0.398000
     35 HC1         3.4660    3.6270    0.1880 h1        1 KH1      0.034700
     36 HC21        1.2470    3.0510    1.0160 hc        1 KH1      0.052700
     37 HC22        1.1960    3.0280   -0.7930 hc        1 KH1      0.052700
     38 HC3         1.4260    0.5390   -0.7990 h1        1 KH1      0.048700
     39 HC41        1.2570    0.8130    2.2950 hc        1 KH1      0.061700
     40 HC42        1.2970   -0.7250    1.3440 hc        1 KH1      0.061700
     41 HC6         3.3320   -1.6790    1.7790 ha        1 KH1      0.124000
     42 HC7         5.8260   -0.0080    1.0480 ha        1 KH1      0.136000
     43 HC91        4.3820   -2.8870    3.0220 hc        1 KH1      0.046200
     44 HC92        5.7050   -2.5170    4.1940 hc        1 KH1      0.046200
     45 H111        5.8170   -4.8600    3.7350 hc        1 KH1      0.038700
     46 H112        5.6280   -4.6280    1.9550 hc        1 KH1      0.038700
     47 H121        8.0900   -3.9830    3.7070 hc        1 KH1      0.050700
     48 H122        7.9520   -5.2090    2.3850 hc        1 KH1      0.050700
     49 H14         7.8770   -1.6610    3.2840 hc        1 KH1      0.054700
     50 H151        7.8300   -0.5580    0.4110 hc        1 KH1      0.046200
     51 H152        8.4450    0.2020    1.9310 hc        1 KH1      0.046200
     52 H161        9.9610   -1.3950    0.0760 hc        1 KH1      0.041700
     53 H162       10.4920   -0.9270    1.7370 hc        1 KH1      0.041700
     54 H17         9.9810   -3.0080    2.6600 hc        1 KH1      0.061700
     55 H181        7.8730   -2.7690   -0.4340 hc        1 KH1      0.037033
     56 H182        7.7730   -4.5210    0.0430 hc        1 KH1      0.037033
     57 H183        6.3630   -3.4090    0.3300 hc        1 KH1      0.037033
     58 H191        5.1940    3.1820    1.7160 ha        1 KH1      0.120000
     59 H192        5.2080    1.6170    2.7160 ha        1 KH1      0.120000
     60 HO1         3.1950    2.5640   -1.8650 ho        1 KH1      0.396000
     61 H20         9.9560   -3.7710   -0.3450 h1        1 KH1      0.040700
     62 H221       11.2850   -6.1530   -0.2150 h1        1 KH1      0.024200
     63 H222        9.5080   -6.0120   -0.6160 h1        1 KH1      0.024200
     64 H231        9.0220   -7.4490    1.4680 hc        1 KH1      0.060700
     65 H232       10.8020   -7.7230    1.6420 hc        1 KH1      0.060700
     66 HO3        11.2600  -11.0660    1.4800 ho        1 KH1      0.398000
     67 H261        9.8010  -12.1100   -0.0830 hc        1 KH1      0.048700
     68 H262        8.6390  -11.0070   -0.9260 hc        1 KH1      0.048700
     69 H271        9.1840   -9.4620    2.4610 hc        1 KH1      0.048700
     70 H272        7.9020   -9.7100    1.2020 hc        1 KH1      0.048700
     71 H211       12.3680   -4.2290    0.0490 hc        1 KH1      0.042367
     72 H212       12.2200   -3.7280    1.7820 hc        1 KH1      0.042367
     73 H213       12.0070   -2.4980    0.4610 hc        1 KH1      0.042367
     74 H241        9.0040   -8.5340   -0.7460 hc        1 KH1      0.049700
     75 H242       10.8200   -8.5570   -0.7980 hc        1 KH1      0.049700
     76 H281        9.5880  -11.9980    2.4350 hc        1 KH1      0.035867
     77 H282        8.1330  -12.1570    1.3670 hc        1 KH1      0.035867
     78 H283        7.9630  -11.4740    3.0330 hc        1 KH1      0.035867
     79 H291       10.5980  -11.9230   -2.3430 hc        1 KH1      0.035867
     80 H292       11.7020  -10.8890   -1.3380 hc        1 KH1      0.035867
     81 H293       10.4170  -10.1220   -2.3600 hc        1 KH1      0.035867
@<TRIPOS>BOND
     1    1    4 1   
     2    1   34 1   
     3    2    3 1   
     4    2   11 1   
     5    2   21 1   
     6    2   35 1   
     7    3    4 1   
     8    3   36 1   
     9    3   37 1   
    10    4    5 1   
    11    4   38 1   
    12    5    6 1   
    13    5   39 1   
    14    5   40 1   
    15    6    7 2   
    16    6   11 1   
    17    7    8 1   
    18    7   41 1   
    19    8    9 2   
    20    8   42 1   
    21    9   10 1   
    22    9   15 1   
    23   10   12 1   
    24   10   43 1   
    25   10   44 1   
    26   11   20 2   
    27   12   13 1   
    28   12   45 1   
    29   12   46 1   
    30   13   14 1   
    31   13   47 1   
    32   13   48 1   
    33   14   15 1   
    34   14   18 1   
    35   14   19 1   
    36   15   16 1   
    37   15   49 1   
    38   16   17 1   
    39   16   50 1   
    40   16   51 1   
    41   17   18 1   
    42   17   52 1   
    43   17   53 1   
    44   18   22 1   
    45   18   54 1   
    46   19   55 1   
    47   19   56 1   
    48   19   57 1   
    49   20   58 1   
    50   20   59 1   
    51   21   60 1   
    52   22   23 1   
    53   22   30 1   
    54   22   61 1   
    55   23   24 1   
    56   24   25 1   
    57   24   62 1   
    58   24   63 1   
    59   25   31 1   
    60   25   64 1   
    61   25   65 1   
    62   26   27 1   
    63   26   28 1   
    64   26   29 1   
    65   26   31 1   
    66   27   66 1   
    67   28   33 1   
    68   28   67 1   
    69   28   68 1   
    70   29   32 1   
    71   29   69 1   
    72   29   70 1   
    73   30   71 1   
    74   30   72 1   
    75   30   73 1   
    76   31   74 1   
    77   31   75 1   
    78   32   76 1   
    79   32   77 1   
    80   32   78 1   
    81   33   79 1   
    82   33   80 1   
    83   33   81 1   
@<TRIPOS>SUBSTRUCTURE
     1 KH1         1 TEMP              0 ****  ****    0 ROOT
