@<TRIPOS>MOLECULE
KH2
   33    33     1     0     0
SMALL
bcc


@<TRIPOS>ATOM
      1 S            0.0000     0.0000     0.0000 s6         1 KH2       0.958800
      2 C1           1.8140     0.0000     0.0000 c3         1 KH2      -0.063600
      3 O1          -0.4690     0.0000     1.3770 o          1 KH2      -0.638533
      4 N2           4.3430    -0.0010    -2.8270 n4         1 KH2       0.059200
      5 O2          -0.4690     1.1930    -0.6890 o          1 KH2      -0.638533
      6 C4           2.3240    -0.0010    -1.4420 c3         1 KH2      -0.006400
      7 O4          -0.4690    -1.1920    -0.6880 o          1 KH2      -0.638533
      8 C7           3.8540    -0.0000    -1.4420 c3         1 KH2      -0.031200
      9 C11          3.8540     1.1990    -3.5180 c3         1 KH2      -0.014900
     10 C12          4.2910    -1.1620    -4.9840 c3         1 KH2      -0.042900
     11 C13          6.3270     0.0840    -4.2640 c3         1 KH2      -0.042900
     12 C14          5.8200    -1.1260    -5.0510 c3         1 KH2      -0.037400
     13 C15          5.8110     0.0030    -2.8250 c3         1 KH2      -0.014700
     14 C16          3.8510    -1.1980    -3.5190 c3         1 KH2      -0.014700
     15 H1           2.1740    -0.8840     0.5110 h1         1 KH2       0.050700
     16 H1A          2.1740     0.8850     0.5100 h1         1 KH2       0.050700
     17 H4           1.9630    -0.8860    -1.9520 hc         1 KH2       0.045200
     18 H4A          1.9630     0.8830    -1.9530 hc         1 KH2       0.045200
     19 H7           4.2150    -0.8840    -0.9300 hx         1 KH2       0.070200
     20 H7A          4.2140     0.8850    -0.9320 hx         1 KH2       0.070200
     21 H11          3.9470     2.0780    -2.8930 hx         1 KH2       0.079367
     22 H11A         2.8120     1.0460    -3.7740 hx         1 KH2       0.079367
     23 H11B         4.4310     1.3370    -4.4240 hx         1 KH2       0.079367
     24 H12          3.9290    -2.0490    -5.4910 hc         1 KH2       0.047950
     25 H12A         3.8880    -0.2770    -5.4600 hc         1 KH2       0.047950
     26 H13          7.4100     0.0830    -4.2590 hc         1 KH2       0.047950
     27 H13A         5.9630     0.9940    -4.7260 hc         1 KH2       0.047950
     28 H14          6.1340    -1.0420    -6.0840 hc         1 KH2       0.040200
     29 H14A         6.2220    -2.0330    -4.6170 hc         1 KH2       0.040200
     30 H15          6.1720    -0.9090    -2.3650 hx         1 KH2       0.081200
     31 H15A         6.1670     0.8600    -2.2670 hx         1 KH2       0.081200
     32 H16          4.2580    -2.0810    -3.0430 hx         1 KH2       0.081200
     33 H16A         2.7690    -1.2220    -3.4690 hx         1 KH2       0.081200
@<TRIPOS>BOND
     1     1     2 1   
     2     1     3 1   
     3     1     5 1   
     4     1     7 1   
     5     2     6 1   
     6     2    15 1   
     7     2    16 1   
     8     4     8 1   
     9     4     9 1   
    10     4    13 1   
    11     4    14 1   
    12     6     8 1   
    13     6    17 1   
    14     6    18 1   
    15     8    19 1   
    16     8    20 1   
    17     9    21 1   
    18     9    22 1   
    19     9    23 1   
    20    10    12 1   
    21    10    14 1   
    22    10    24 1   
    23    10    25 1   
    24    11    12 1   
    25    11    13 1   
    26    11    26 1   
    27    11    27 1   
    28    12    28 1   
    29    12    29 1   
    30    13    30 1   
    31    13    31 1   
    32    14    32 1   
    33    14    33 1   
@<TRIPOS>SUBSTRUCTURE
     1 KH2         1 TEMP              0 ****  ****    0 ROOT
