@<TRIPOS>MOLECULE
KH3
   73    75     1     0     0
SMALL
bcc


@<TRIPOS>ATOM
      1 O            0.0000     0.0000     0.0000 o          1 KH3      -0.818800
      2 C            1.2080     0.0000     0.0000 c          1 KH3       0.954600
      3 CA           1.9620     0.0000     1.3050 c3         1 KH3      -0.191500
      4 N            1.0800     0.4740     2.3790 nz         1 KH3       0.073400
      5 CB           2.4330    -1.4200     1.6220 c3         1 KH3      -0.079400
      6 CG           3.2820    -1.4040     2.8960 c3         1 KH3       0.109800
      7 ND           3.8520    -2.7380     3.1210 n3         1 KH3      -0.521600
      8 CE           4.8010    -3.0930     2.0570 c3         1 KH3       0.133800
      9 C11          6.0710    -2.2530     2.2060 c3         1 KH3       0.140800
     10 N12          6.9780    -2.5340     1.0850 n7         1 KH3      -0.580200
     11 C13          8.2110    -1.7430     1.1950 c3         1 KH3       0.144800
     12 C14          9.1280    -2.0620     0.0120 c3         1 KH3      -0.030400
     13 C15         10.4130    -1.2380     0.1260 c3         1 KH3      -0.027400
     14 C16         11.3290    -1.5580    -1.0560 c3         1 KH3      -0.029400
     15 C17         12.6140    -0.7340    -0.9420 c3         1 KH3      -0.028400
     16 C18         13.5310    -1.0530    -2.1240 c3         1 KH3       0.006900
     17 C5'          2.7930    -3.7500     3.2410 c3         1 KH3       0.129800
     18 C4'          2.1580    -3.6610     4.6300 c3         1 KH3       0.174100
     19 O4'          1.3420    -2.4740     4.7350 os         1 KH3      -0.431600
     20 C1'          0.4340    -2.7320     5.8280 c3         1 KH3       0.150800
     21 C2'          0.0170    -4.2100     5.6550 c3         1 KH3       0.122100
     22 O2'         -0.1090    -4.8470     6.9280 oh         1 KH3      -0.538800
     23 C3'          1.1770    -4.8350     4.8490 c3         1 KH3       0.130100
     24 O3'          1.8040    -5.8780     5.5990 oh         1 KH3      -0.547800
     25 N9          -0.7380    -1.8580     5.7350 na         1 KH3       0.202000
     26 C8          -1.2380    -1.2980     4.5980 cc         1 KH3       0.208700
     27 N7          -2.2860    -0.5790     4.8790 nd         1 KH3      -0.480100
     28 C5          -2.5240    -0.6320     6.2120 ca         1 KH3      -0.255200
     29 C6          -3.4910    -0.0760     7.0650 ca         1 KH3       0.594200
     30 N6          -4.4880     0.7450     6.5670 nv         1 KH3      -0.471500
     31 C4          -1.5360    -1.4570     6.7770 ca         1 KH3       0.284800
     32 N3          -1.5480    -1.6740     8.0870 nb         1 KH3      -0.679000
     33 C2          -2.4700    -1.1250     8.8500 ca         1 KH3       0.703900
     34 N1          -3.4260    -0.3550     8.3630 nb         1 KH3      -0.741000
     35 OXT          1.8790    -0.0060    -1.1630 o          1 KH3      -0.818800
     36 H1           2.8200     0.6560     1.2270 hx         1 KH3       0.086700
     37 H2           0.3450    -0.1890     2.5250 hn         1 KH3       0.215133
     38 H3           0.6850     1.3580     2.1220 hn         1 KH3       0.215133
     39 H5           1.5730    -2.0610     1.7690 hc         1 KH3       0.064700
     40 H6           3.0270    -1.7950     0.7980 hc         1 KH3       0.064700
     41 H7           2.6610    -1.1290     3.7400 h1         1 KH3       0.030200
     42 H8           4.0830    -0.6830     2.7870 h1         1 KH3       0.030200
     43 H10          5.0520    -4.1440     2.1340 h1         1 KH3       0.027700
     44 H11          4.3500    -2.8990     1.0920 h1         1 KH3       0.027700
     45 H12          6.5620    -2.5020     3.1380 h1         1 KH3       0.012200
     46 H13          5.8110    -1.2010     2.2050 h1         1 KH3       0.012200
     47 H14          7.2060    -3.5080     1.0770 hn         1 KH3       0.252800
     48 H16          8.7160    -1.9890     2.1210 h1         1 KH3       0.006200
     49 H17          7.9650    -0.6880     1.1860 h1         1 KH3       0.006200
     50 H18          8.6230    -1.8170    -0.9140 hc         1 KH3       0.021700
     51 H19          9.3740    -3.1170     0.0200 hc         1 KH3       0.021700
     52 H20         10.9180    -1.4840     1.0520 hc         1 KH3       0.013700
     53 H21         10.1670    -0.1830     0.1180 hc         1 KH3       0.013700
     54 H22         10.8240    -1.3120    -1.9820 hc         1 KH3       0.016700
     55 H23         11.5750    -2.6130    -1.0480 hc         1 KH3       0.016700
     56 H24         12.3680     0.3210    -0.9500 hc         1 KH3       0.011700
     57 H25         13.1190    -0.9790    -0.0160 hc         1 KH3       0.011700
     58 H26         14.4300    -0.4520    -2.0560 hc         1 KH3       0.000700
     59 H27         13.0170    -0.8290    -3.0510 hc         1 KH3       0.000700
     60 H28         13.7960    -2.1030    -2.1020 hc         1 KH3       0.000700
     61 H29          2.0370    -3.5720     2.4860 h1         1 KH3       0.032700
     62 H30          3.2190    -4.7360     3.1010 h1         1 KH3       0.032700
     63 H31          2.9200    -3.6610     5.4000 h1         1 KH3       0.060700
     64 H32          0.9400    -2.5930     6.7760 h2         1 KH3       0.076700
     65 H33         -0.9090    -4.2780     5.0980 h1         1 KH3       0.021700
     66 H34         -0.8260    -5.4590     6.9030 ho         1 KH3       0.395000
     67 H35          0.8170    -5.2080     3.8970 h1         1 KH3       0.018700
     68 H36          1.6020    -6.7120     5.2080 ho         1 KH3       0.392000
     69 H37         -0.8270    -1.4340     3.6050 h5         1 KH3       0.027800
     70 H38         -4.5260     0.9480     5.5880 hn         1 KH3       0.278300
     71 H39         -5.1710     1.1350     7.1860 hn         1 KH3       0.278300
     72 H40         -2.4540    -1.3270     9.9150 h5         1 KH3      -0.000900
     73 HN3          1.6100     0.5890     3.2200 hn         1 KH3       0.215133
@<TRIPOS>BOND
     1     1     2 1   
     2     2     3 1   
     3     2    35 1   
     4     3     4 1   
     5     3     5 1   
     6     3    36 1   
     7     4    37 1   
     8     4    38 1   
     9     4    73 1   
    10     5     6 1   
    11     5    39 1   
    12     5    40 1   
    13     6     7 1   
    14     6    41 1   
    15     6    42 1   
    16     7     8 1   
    17     7    17 1   
    18     8     9 1   
    19     8    43 1   
    20     8    44 1   
    21     9    10 1   
    22     9    45 1   
    23     9    46 1   
    24    10    11 1   
    25    10    47 1   
    26    11    12 1   
    27    11    48 1   
    28    11    49 1   
    29    12    13 1   
    30    12    50 1   
    31    12    51 1   
    32    13    14 1   
    33    13    52 1   
    34    13    53 1   
    35    14    15 1   
    36    14    54 1   
    37    14    55 1   
    38    15    16 1   
    39    15    56 1   
    40    15    57 1   
    41    16    58 1   
    42    16    59 1   
    43    16    60 1   
    44    17    18 1   
    45    17    61 1   
    46    17    62 1   
    47    18    19 1   
    48    18    23 1   
    49    18    63 1   
    50    19    20 1   
    51    20    21 1   
    52    20    25 1   
    53    20    64 1   
    54    21    22 1   
    55    21    23 1   
    56    21    65 1   
    57    22    66 1   
    58    23    24 1   
    59    23    67 1   
    60    24    68 1   
    61    25    26 1   
    62    25    31 1   
    63    26    27 2   
    64    26    69 1   
    65    27    28 1   
    66    28    29 ar  
    67    28    31 ar  
    68    29    30 1   
    69    29    34 ar  
    70    30    70 1   
    71    30    71 1   
    72    31    32 ar  
    73    32    33 ar  
    74    33    34 ar  
    75    33    72 1   
@<TRIPOS>SUBSTRUCTURE
     1 KH3         1 TEMP              0 ****  ****    0 ROOT
