@<TRIPOS>MOLECULE
molecule
   73    75     1     0     0
SMALL
bcc


@<TRIPOS>ATOM
      1 O            0.0000     0.0000     0.0000 o          1 KH3      -0.777300
      2 C            1.2080     0.0000     0.0000 c          1 KH3       0.867600
      3 CA           1.9620     0.0000     1.3050 c3         1 KH3      -0.013500
      4 N            1.0800     0.4740     2.3790 nz         1 KH3      -0.790600
      5 CB           2.4330    -1.4200     1.6220 c3         1 KH3      -0.136400
      6 CG           3.2820    -1.4040     2.8960 c3         1 KH3       0.135800
      7 ND           3.8520    -2.7380     3.1210 n3         1 KH3      -0.717600
      8 CE           4.8010    -3.0930     2.0570 c3         1 KH3       0.150800
      9 C11          6.0710    -2.2530     2.2060 c3         1 KH3       0.159800
     10 N12          6.9780    -2.5340     1.0850 n7         1 KH3      -0.818200
     11 C13          8.2110    -1.7430     1.1950 c3         1 KH3       0.158800
     12 C14          9.1280    -2.0620     0.0120 c3         1 KH3      -0.083400
     13 C15         10.4130    -1.2380     0.1260 c3         1 KH3      -0.082400
     14 C16         11.3290    -1.5580    -1.0560 c3         1 KH3      -0.080400
     15 C17         12.6140    -0.7340    -0.9420 c3         1 KH3      -0.084400
     16 C18         13.5310    -1.0530    -2.1240 c3         1 KH3      -0.092100
     17 C5'          2.7930    -3.7500     3.2410 c3         1 KH3       0.157800
     18 C4'          2.1580    -3.6610     4.6300 c3         1 KH3       0.136100
     19 O4'          1.3420    -2.4740     4.7350 os         1 KH3      -0.444600
     20 C1'          0.4340    -2.7320     5.8280 c3         1 KH3       0.253800
     21 C2'          0.0170    -4.2100     5.6550 c3         1 KH3       0.087100
     22 O2'         -0.1090    -4.8470     6.9280 oh         1 KH3      -0.559800
     23 C3'          1.1770    -4.8350     4.8490 c3         1 KH3       0.090100
     24 O3'          1.8040    -5.8780     5.5990 oh         1 KH3      -0.568800
     25 N9          -0.7380    -1.8580     5.7350 na         1 KH3      -0.256000
     26 C8          -1.2380    -1.2980     4.5980 cc         1 KH3       0.391700
     27 N7          -2.2860    -0.5790     4.8790 nd         1 KH3      -0.574100
     28 C5          -2.5240    -0.6320     6.2120 ca         1 KH3      -0.222200
     29 C6          -3.4910    -0.0760     7.0650 ca         1 KH3       0.794200
     30 N6          -4.4880     0.7450     6.5670 nv         1 KH3      -0.978500
     31 C4          -1.5360    -1.4570     6.7770 ca         1 KH3       0.487800
     32 N3          -1.5480    -1.6740     8.0870 nb         1 KH3      -0.790000
     33 C2          -2.4700    -1.1250     8.8500 ca         1 KH3       0.751900
     34 N1          -3.4260    -0.3550     8.3630 nb         1 KH3      -0.833000
     35 OXT          1.8790    -0.0060    -1.1630 o          1 KH3      -0.777300
     36 H1           2.8200     0.6560     1.2270 hx         1 KH3       0.103700
     37 H2           0.3450    -0.1890     2.5250 hn         1 KH3       0.440133
     38 H3           0.6850     1.3580     2.1220 hn         1 KH3       0.440133
     39 H5           1.5730    -2.0610     1.7690 hc         1 KH3       0.088200
     40 H6           3.0270    -1.7950     0.7980 hc         1 KH3       0.088200
     41 H7           2.6610    -1.1290     3.7400 h1         1 KH3       0.055200
     42 H8           4.0830    -0.6830     2.7870 h1         1 KH3       0.055200
     43 H10          5.0520    -4.1440     2.1340 h1         1 KH3       0.051200
     44 H11          4.3500    -2.8990     1.0920 h1         1 KH3       0.051200
     45 H12          6.5620    -2.5020     3.1380 h1         1 KH3       0.037700
     46 H13          5.8110    -1.2010     2.2050 h1         1 KH3       0.037700
     47 H14          7.2060    -3.5080     1.0770 hn         1 KH3       0.351800
     48 H16          8.7160    -1.9890     2.1210 h1         1 KH3       0.031700
     49 H17          7.9650    -0.6880     1.1860 h1         1 KH3       0.031700
     50 H18          8.6230    -1.8170    -0.9140 hc         1 KH3       0.050200
     51 H19          9.3740    -3.1170     0.0200 hc         1 KH3       0.050200
     52 H20         10.9180    -1.4840     1.0520 hc         1 KH3       0.040200
     53 H21         10.1670    -0.1830     0.1180 hc         1 KH3       0.040200
     54 H22         10.8240    -1.3120    -1.9820 hc         1 KH3       0.043200
     55 H23         11.5750    -2.6130    -1.0480 hc         1 KH3       0.043200
     56 H24         12.3680     0.3210    -0.9500 hc         1 KH3       0.039700
     57 H25         13.1190    -0.9790    -0.0160 hc         1 KH3       0.039700
     58 H26         14.4300    -0.4520    -2.0560 hc         1 KH3       0.033033
     59 H27         13.0170    -0.8290    -3.0510 hc         1 KH3       0.033033
     60 H28         13.7960    -2.1030    -2.1020 hc         1 KH3       0.033033
     61 H29          2.0370    -3.5720     2.4860 h1         1 KH3       0.055700
     62 H30          3.2190    -4.7360     3.1010 h1         1 KH3       0.055700
     63 H31          2.9200    -3.6610     5.4000 h1         1 KH3       0.097700
     64 H32          0.9400    -2.5930     6.7760 h2         1 KH3       0.117700
     65 H33         -0.9090    -4.2780     5.0980 h1         1 KH3       0.058700
     66 H34         -0.8260    -5.4590     6.9030 ho         1 KH3       0.411000
     67 H35          0.8170    -5.2080     3.8970 h1         1 KH3       0.051700
     68 H36          1.6020    -6.7120     5.2080 ho         1 KH3       0.407000
     69 H37         -0.8270    -1.4340     3.6050 h5         1 KH3       0.070800
     70 H38         -4.5260     0.9480     5.5880 hn         1 KH3       0.453800
     71 H39         -5.1710     1.1350     7.1860 hn         1 KH3       0.453800
     72 H40         -2.4540    -1.3270     9.9150 h5         1 KH3       0.067100
     73 HN3          1.6100     0.5890     3.2200 hn         1 KH3       0.440133
@<TRIPOS>BOND
     1    34    33 ar
     2    34    29 ar
     3    30    29 1
     4    33    32 ar
     5    29    28 ar
     6    32    31 ar
     7    28    31 ar
     8    28    27 1
     9    31    25 1
    10    27    26 2
    11     4     3 1
    12    25    26 1
    13    25    20 1
    14     1     2 1
    15    20    19 1
    16    20    21 1
    17     3     2 1
    18     3     5 1
    19     2    35 1
    20    19    18 1
    21     5     6 1
    22     6     7 1
    23    21    22 1
    24    21    23 1
    25    18    17 1
    26    18    23 1
    27     7    17 1
    28     7     8 1
    29    23    24 1
    30     8     9 1
    31     9    10 1
    32    10    11 1
    33    11    12 1
    34    14    15 1
    35    14    13 1
    36    12    13 1
    37    15    16 1
    38     3    36 1
    39     4    37 1
    40     4    38 1
    41     5    39 1
    42     5    40 1
    43     6    41 1
    44     6    42 1
    45     8    43 1
    46     8    44 1
    47     9    45 1
    48     9    46 1
    49    10    47 1
    50    11    48 1
    51    11    49 1
    52    12    50 1
    53    12    51 1
    54    13    52 1
    55    13    53 1
    56    14    54 1
    57    14    55 1
    58    15    56 1
    59    15    57 1
    60    16    58 1
    61    16    59 1
    62    16    60 1
    63    17    61 1
    64    17    62 1
    65    18    63 1
    66    20    64 1
    67    21    65 1
    68    22    66 1
    69    23    67 1
    70    24    68 1
    71    26    69 1
    72    30    70 1
    73    30    71 1
    74    33    72 1
    75    73     4 1
@<TRIPOS>SUBSTRUCTURE
     1 KH3         1 TEMP              0 ****  ****    0 ROOT
