@<TRIPOS>MOLECULE
molecule
   52    52     1     0     0
SMALL
bcc


@<TRIPOS>ATOM
      1 C16          0.0000     0.0000     0.0000 c          1 KH4       0.654100
      2 O3          -0.6060    -0.2150    -1.0290 o          1 KH4      -0.622100
      3 C17          1.5080     0.0000     0.0000 c3         1 KH4       0.083100
      4 O4           1.9830     0.0000     1.3480 oh         1 KH4      -0.607800
      5 C18          2.0170     1.2490    -0.7210 c3         1 KH4      -0.067000
      6 C19          3.5400     1.3260    -0.5930 c3         1 KH4       0.232400
      7 C20          1.6340     1.1750    -2.2010 c3         1 KH4      -0.074600
      8 C21          1.3890     2.4940    -0.0920 c3         1 KH4      -0.074600
      9 P            5.5750     2.8910    -1.3340 p5         1 KH4       1.203900
     10 O1P          6.3500     1.7600    -1.8910 o          1 KH4      -0.822833
     11 O2P          4.0160     2.4930    -1.2660 os         1 KH4      -0.585200
     12 O3P          6.1080     3.2280     0.1470 o          1 KH4      -0.822833
     13 OXT          5.7580     4.1830    -2.2780 o          1 KH4      -0.822833
     14 N2          -0.6740     0.2380     1.1430 ns         1 KH4      -0.592900
     15 C15         -2.1340     0.3490     1.1210 c3         1 KH4       0.127000
     16 C14         -2.6450     0.6190     2.5380 c3         1 KH4      -0.177400
     17 C13         -4.1480     0.7340     2.5170 c          1 KH4       0.658100
     18 O2          -4.7500     0.6120     1.4710 o          1 KH4      -0.609100
     19 C4          -9.2520     2.3440     9.9990 cc         1 KH4      -0.268600
     20 N3         -10.5910     2.4870    10.1910 na         1 KH4      -0.309900
     21 C2         -11.1990     2.3390     8.9850 cc         1 KH4       0.373400
     22 N4         -10.2920     2.1160     8.0770 nd         1 KH4      -0.765000
     23 C5          -9.0700     2.1110     8.6670 cd         1 KH4       0.192800
     24 O6          -9.8980     1.8080     6.0320 o          1 KH4      -0.506100
     25 C22         -8.9070     1.7930     6.7370 c          1 KH4       0.637200
     26 S1          -8.5990     1.4910     5.0280 ss         1 KH4      -0.160700
     27 C11         -6.7940     1.3540     5.0540 c3         1 KH4      -0.130300
     28 C12         -6.2820     1.0840     3.6390 c3         1 KH4       0.136000
     29 N1          -4.8220     0.9720     3.6590 ns         1 KH4      -0.589900
     30 H15          1.8690    -0.8850    -0.5100 h1         1 KH4       0.058700
     31 H16          2.3460    -0.8460     1.5530 ho         1 KH4       0.393000
     32 H17          3.9850     0.4450    -1.0390 h1         1 KH4       0.020200
     33 H18          3.8120     1.3770     0.4550 h1         1 KH4       0.020200
     34 H19          0.6000     1.4750    -2.3210 hc         1 KH4       0.037367
     35 H20          2.2710     1.8390    -2.7720 hc         1 KH4       0.037367
     36 H21          1.7600     0.1600    -2.5560 hc         1 KH4       0.037367
     37 H22          1.7160     2.5830     0.9370 hc         1 KH4       0.037367
     38 H23          0.3090     2.4070    -0.1210 hc         1 KH4       0.037367
     39 H24          1.6960     3.3730    -0.6460 hc         1 KH4       0.037367
     40 H14         -0.1820     0.2860     2.0130 hn         1 KH4       0.323500
     41 H13         -2.4250     1.1650     0.4700 h1         1 KH4       0.062700
     42 H12         -2.5620    -0.5760     0.7530 h1         1 KH4       0.062700
     43 H10         -2.2180     1.5440     2.9060 hc         1 KH4       0.061700
     44 H11         -2.3550    -0.1970     3.1880 hc         1 KH4       0.061700
     45 H3         -12.2650     2.3980     8.8070 h5         1 KH4       0.047100
     46 H5          -6.3670     2.2790     5.4220 h1         1 KH4       0.053200
     47 H6          -6.5040     0.5380     5.7050 h1         1 KH4       0.053200
     48 H7          -6.5730     1.9000     2.9880 h1         1 KH4       0.053700
     49 H8          -6.7100     0.1590     3.2710 h1         1 KH4       0.053700
     50 H9          -4.3250     1.0730     4.5210 hn         1 KH4       0.310500
     51 H1          -8.4800     2.4040    10.7560 h4         1 KH4       0.168000
     52 H2         -11.0460     2.6670    11.0640 hn         1 KH4       0.282700
@<TRIPOS>BOND
     1    20    21 1
     2    20    19 1
     3    21    22 2
     4    19    23 2
     5    22    23 1
     6    23    25 1
     7    25    24 2
     8    25    26 1
     9    26    27 1
    10    27    28 1
    11    18    17 2
    12    17    16 1
    13    17    29 1
    14    15    16 1
    15    15    14 1
    16    28    29 1
    17    14     1 1
    18     2     1 2
    19     1     3 1
    20     4     3 1
    21     3     5 1
    22    12     9 1
    23    11     6 1
    24    11     9 1
    25     7     5 1
    26     5     6 1
    27     5     8 1
    28     9    10 1
    29    19    51 1
    30    20    52 1
    31    21    45 1
    32    27    46 1
    33    27    47 1
    34    28    48 1
    35    28    49 1
    36    29    50 1
    37    16    43 1
    38    16    44 1
    39    15    42 1
    40    15    41 1
    41    14    40 1
    42     3    30 1
    43     4    31 1
    44     6    32 1
    45     6    33 1
    46     7    34 1
    47     7    35 1
    48     7    36 1
    49     8    37 1
    50     8    38 1
    51     8    39 1
    52     9    13 1
@<TRIPOS>SUBSTRUCTURE
     1 KH4         1 TEMP              0 ****  ****    0 ROOT
