@<TRIPOS>MOLECULE
KHA
   45    46     1     0     0
SMALL
bcc


@<TRIPOS>ATOM
      1 O1           0.0000     0.0000     0.0000 o          1 KHA      -0.627100
      2 C8           1.2160     0.0000     0.0000 c          1 KHA       0.570700
      3 N1           1.8890     0.0000     1.1680 ns         1 KHA      -0.168900
      4 C9           1.1560     0.0010     2.4360 c3         1 KHA       0.040000
      5 C10          2.1490     0.0010     3.5990 c3         1 KHA       0.210400
      6 O2           2.8920     1.2220     3.5910 oh         1 KHA      -0.605800
      7 C6           1.9550    -0.0020    -1.2800 ca         1 KHA      -0.096600
      8 C3           1.2610    -0.0020    -2.4900 ca         1 KHA      -0.046000
      9 C1           1.9580    -0.0030    -3.6820 ca         1 KHA      -0.091000
     10 C2           3.3520    -0.0020    -1.2820 ca         1 KHA      -0.046000
     11 C5           4.0360    -0.0080    -2.4800 ca         1 KHA      -0.091000
     12 C4           3.3420    -0.0030    -3.6770 ca         1 KHA      -0.179300
     13 C7           4.0960    -0.0050    -4.9820 c3         1 KHA       0.066100
     14 N2           4.3410     1.3800    -5.4060 n4         1 KHA       0.059200
     15 C11          3.0570     2.0710    -5.5830 c3         1 KHA      -0.017900
     16 C16          5.0730     1.3770    -6.6790 c3         1 KHA      -0.017200
     17 C15          5.1300     2.0720    -4.3810 c3         1 KHA      -0.017200
     18 C13          5.3210     3.5360    -4.7790 c3         1 KHA      -0.041400
     19 C14          6.0560     3.6030    -6.1210 c3         1 KHA      -0.037400
     20 C12          5.2610     2.8150    -7.1670 c3         1 KHA      -0.041400
     21 H1           2.8900     0.0080     1.1690 hn         1 KHA       0.180500
     22 H9C1         0.5330    -0.8830     2.4930 h1         1 KHA       0.040200
     23 H9C2         0.5340     0.8860     2.4920 h1         1 KHA       0.040200
     24 H101         1.6100    -0.0870     4.5350 h1         1 KHA      -0.000300
     25 H102         2.8290    -0.8360     3.4940 h1         1 KHA      -0.000300
     26 H2           3.2890     1.3540     4.4360 ho         1 KHA       0.406000
     27 H3           0.1780    -0.0030    -2.4950 ha         1 KHA       0.136000
     28 HB           1.4210    -0.0010    -4.6220 ha         1 KHA       0.112500
     29 HA           3.8970    -0.0060    -0.3460 ha         1 KHA       0.136000
     30 H5           5.1190    -0.0080    -2.4840 ha         1 KHA       0.112500
     31 H7C1         5.0430    -0.5150    -4.8510 hx         1 KHA       0.075700
     32 H7C2         3.5110    -0.5160    -5.7370 hx         1 KHA       0.075700
     33 H111         2.3830     1.4410    -6.1510 hx         1 KHA       0.080367
     34 H112         2.6240     2.2820    -4.6130 hx         1 KHA       0.080367
     35 H113         3.2170     3.0010    -6.1160 hx         1 KHA       0.080367
     36 H161         4.5090     0.8190    -7.4170 hx         1 KHA       0.079700
     37 H162         6.0430     0.9170    -6.5350 hx         1 KHA       0.079700
     38 H151         4.6080     2.0230    -3.4330 hx         1 KHA       0.079700
     39 H152         6.0980     1.5950    -4.2900 hx         1 KHA       0.079700
     40 H131         5.9070     4.0420    -4.0210 hc         1 KHA       0.052200
     41 H132         4.3530     4.0130    -4.8740 hc         1 KHA       0.052200
     42 H141         7.0430     3.1690    -6.0150 hc         1 KHA       0.046700
     43 H142         6.1410     4.6360    -6.4360 hc         1 KHA       0.046700
     44 H121         5.8050     2.8100    -8.1040 hc         1 KHA       0.052200
     45 H122         4.2920     3.2780    -7.3070 hc         1 KHA       0.052200
@<TRIPOS>BOND
     1     1     2 2   
     2     2     3 1   
     3     2     7 1   
     4     3     4 1   
     5     3    21 1   
     6     4     5 1   
     7     4    22 1   
     8     4    23 1   
     9     5     6 1   
    10     5    24 1   
    11     5    25 1   
    12     6    26 1   
    13     7     8 ar  
    14     7    10 ar  
    15     8     9 ar  
    16     8    27 1   
    17     9    12 ar  
    18     9    28 1   
    19    10    11 ar  
    20    10    29 1   
    21    11    12 ar  
    22    11    30 1   
    23    12    13 1   
    24    13    14 1   
    25    13    31 1   
    26    13    32 1   
    27    14    15 1   
    28    14    16 1   
    29    14    17 1   
    30    15    33 1   
    31    15    34 1   
    32    15    35 1   
    33    16    20 1   
    34    16    36 1   
    35    16    37 1   
    36    17    18 1   
    37    17    38 1   
    38    17    39 1   
    39    18    19 1   
    40    18    40 1   
    41    18    41 1   
    42    19    20 1   
    43    19    42 1   
    44    19    43 1   
    45    20    44 1   
    46    20    45 1   
@<TRIPOS>SUBSTRUCTURE
     1 KHA         1 TEMP              0 ****  ****    0 ROOT
