@<TRIPOS>MOLECULE
KHD
   55    58     1     0     0
SMALL
bcc


@<TRIPOS>ATOM
      1 N3           0.0000     0.0000     0.0000 nb         1 KHD      -0.689000
      2 C4           1.3240     0.0000     0.0000 ca         1 KHD       0.554200
      3 C5           2.0340     0.0000     1.2060 cp         1 KHD      -0.285300
      4 C6           1.3170     0.0010     2.4110 ca         1 KHD       0.238100
      5 C8           3.5160    -0.0020     1.2100 cp         1 KHD      -0.012000
      6 C10          5.5920    -1.0910     1.7300 ca         1 KHD      -0.120000
      7 C13          4.2170     1.0910     0.7010 ca         1 KHD      -0.082000
      8 C15          8.2860     0.7630     2.1340 ca         1 KHD       0.144100
      9 C17         10.3180     1.6670     3.0290 ca         1 KHD      -0.062000
     10 C20          7.5590     1.4380     3.1030 ca         1 KHD      -0.170000
     11 C22          1.2150     0.1060     4.7340 ca         1 KHD       0.124100
     12 C24          0.4240     1.4090     6.5870 ca         1 KHD      -0.065000
     13 C26         -0.2720    -0.8760     6.3440 ca         1 KHD      -0.072400
     14 O31          0.4440    -3.4030     5.9200 o          1 KHD      -0.625100
     15 C29         -0.6050    -3.2260     6.5040 c          1 KHD       0.557100
     16 C30         -1.4620    -4.4040     6.8890 c3         1 KHD      -0.098400
     17 C32         -0.7860    -5.6970     6.4310 c3         1 KHD       0.020900
     18 N28         -1.0030    -1.9750     6.8070 ns         1 KHD      -0.033100
     19 C27          0.4920    -0.9860     5.1900 ca         1 KHD      -0.145000
     20 C23          1.1790     1.3030     5.4350 ca         1 KHD      -0.129000
     21 C25         -0.2990     0.3240     7.0450 ca         1 KHD      -0.146000
     22 O21          1.9630     0.0020     3.6040 os         1 KHD      -0.207200
     23 N7           2.0130    -0.0020    -1.2060 nv         1 KHD      -0.529500
     24 C2          -0.6980     0.0020     1.1210 ca         1 KHD       0.498200
     25 C1          -0.0730     0.0020     2.3510 ca         1 KHD      -0.398300
     26 C9           4.2130    -1.0930     1.7280 ca         1 KHD      -0.082000
     27 C11          6.2870    -0.0040     1.2170 ca         1 KHD       0.100100
     28 C12          5.5960     1.0870     0.7060 ca         1 KHD      -0.120000
     29 O14          7.6450    -0.0070     1.2150 os         1 KHD      -0.222200
     30 C16          9.6680     0.8800     2.0990 ca         1 KHD      -0.170000
     31 C18          9.5920     2.3310     4.0020 ca         1 KHD      -0.143000
     32 C19          8.2130     2.2200     4.0350 ca         1 KHD      -0.062000
     33 H1           6.1340    -1.9390     2.1300 ha         1 KHD       0.118000
     34 H2           3.6790     1.9430     0.3020 ha         1 KHD       0.115000
     35 H3          11.3970     1.7570     3.0040 ha         1 KHD       0.101500
     36 H4           6.4790     1.3520     3.1290 ha         1 KHD       0.122000
     37 H5           0.3990     2.3440     7.1340 ha         1 KHD       0.106000
     38 H6          -2.4320    -4.3160     6.4140 hc         1 KHD       0.026200
     39 H7          -1.5870    -4.4240     7.9650 hc         1 KHD       0.026200
     40 H8          -0.7160    -5.7050     5.3500 hc         1 KHD       0.010700
     41 H9          -1.3700    -6.5470     6.7610 hc         1 KHD       0.010700
     42 H10          0.2090    -5.7550     6.8570 hc         1 KHD       0.010700
     43 H11         -1.8290    -1.8310     7.3540 hn         1 KHD       0.168500
     44 H12          0.5180    -1.9210     4.6440 ha         1 KHD       0.167000
     45 H13          1.7450     2.1560     5.0790 ha         1 KHD       0.117000
     46 H14         -0.8910     0.4090     7.9480 ha         1 KHD       0.107000
     47 H15          3.0130    -0.0360    -1.2100 hn         1 KHD       0.277300
     48 H16          1.5090     0.0010    -2.0700 hn         1 KHD       0.277300
     49 H17         -1.7800     0.0020     1.0740 h4         1 KHD      -0.027900
     50 H18         -0.6600     0.0030     3.2620 ha         1 KHD       0.137000
     51 H19          3.6710    -1.9420     2.1280 ha         1 KHD       0.115000
     52 H20          6.1410     1.9340     0.3090 ha         1 KHD       0.118000
     53 H21         10.2380     0.3570     1.3400 ha         1 KHD       0.122000
     54 H22         10.1030     2.9460     4.7330 ha         1 KHD       0.104000
     55 H23          7.6460     2.7440     4.7960 ha         1 KHD       0.101500
@<TRIPOS>BOND
     1     1     2 ar  
     2     1    24 ar  
     3     2     3 ar  
     4     2    23 1   
     5     3     4 ar  
     6     3     5 1   
     7     4    22 1   
     8     4    25 ar  
     9     5     7 ar  
    10     5    26 ar  
    11     6    26 ar  
    12     6    27 ar  
    13     6    33 1   
    14     7    28 ar  
    15     7    34 1   
    16     8    10 ar  
    17     8    29 1   
    18     8    30 ar  
    19     9    30 ar  
    20     9    31 ar  
    21     9    35 1   
    22    10    32 ar  
    23    10    36 1   
    24    11    19 ar  
    25    11    20 ar  
    26    11    22 1   
    27    12    20 ar  
    28    12    21 ar  
    29    12    37 1   
    30    13    18 1   
    31    13    19 ar  
    32    13    21 ar  
    33    14    15 2   
    34    15    16 1   
    35    15    18 1   
    36    16    17 1   
    37    16    38 1   
    38    16    39 1   
    39    17    40 1   
    40    17    41 1   
    41    17    42 1   
    42    18    43 1   
    43    19    44 1   
    44    20    45 1   
    45    21    46 1   
    46    23    47 1   
    47    23    48 1   
    48    24    25 ar  
    49    24    49 1   
    50    25    50 1   
    51    26    51 1   
    52    27    28 ar  
    53    27    29 1   
    54    28    52 1   
    55    30    53 1   
    56    31    32 ar  
    57    31    54 1   
    58    32    55 1   
@<TRIPOS>SUBSTRUCTURE
     1 KHD         1 TEMP              0 ****  ****    0 ROOT
