@<TRIPOS>MOLECULE
molecule
   55    58     1     0     0
SMALL
bcc


@<TRIPOS>ATOM
      1 N3           0.0000     0.0000     0.0000 nb         1 KHD      -0.788000
      2 C4           1.3240     0.0000     0.0000 ca         1 KHD       0.744200
      3 C5           2.0340     0.0000     1.2060 cp         1 KHD      -0.273300
      4 C6           1.3170     0.0010     2.4110 ca         1 KHD       0.222100
      5 C8           3.5160    -0.0020     1.2100 cp         1 KHD      -0.022000
      6 C10          5.5920    -1.0910     1.7300 ca         1 KHD      -0.142000
      7 C13          4.2170     1.0910     0.7010 ca         1 KHD      -0.108000
      8 C15          8.2860     0.7630     2.1340 ca         1 KHD       0.136100
      9 C17         10.3180     1.6670     3.0290 ca         1 KHD      -0.095500
     10 C20          7.5590     1.4380     3.1030 ca         1 KHD      -0.180500
     11 C22          1.2150     0.1060     4.7340 ca         1 KHD       0.116100
     12 C24          0.4240     1.4090     6.5870 ca         1 KHD      -0.099000
     13 C26         -0.2720    -0.8760     6.3440 ca         1 KHD       0.068600
     14 O31          0.4440    -3.4030     5.9200 o          1 KHD      -0.586100
     15 C29         -0.6050    -3.2260     6.5040 c          1 KHD       0.656100
     16 C30         -1.4620    -4.4040     6.8890 c3         1 KHD      -0.159400
     17 C32         -0.7860    -5.6970     6.4310 c3         1 KHD      -0.077100
     18 N28         -1.0030    -1.9750     6.8070 ns         1 KHD      -0.477100
     19 C27          0.4920    -0.9860     5.1900 ca         1 KHD      -0.155000
     20 C23          1.1790     1.3030     5.4350 ca         1 KHD      -0.149000
     21 C25         -0.2990     0.3240     7.0450 ca         1 KHD      -0.169000
     22 O21          1.9630     0.0020     3.6040 os         1 KHD      -0.231200
     23 N7           2.0130    -0.0020    -1.2060 nv         1 KHD      -1.003500
     24 C2          -0.6980     0.0020     1.1210 ca         1 KHD       0.503200
     25 C1          -0.0730     0.0020     2.3510 ca         1 KHD      -0.397300
     26 C9           4.2130    -1.0930     1.7280 ca         1 KHD      -0.108000
     27 C11          6.2870    -0.0040     1.2170 ca         1 KHD       0.098100
     28 C12          5.5960     1.0870     0.7060 ca         1 KHD      -0.142000
     29 O14          7.6450    -0.0070     1.2150 os         1 KHD      -0.251200
     30 C16          9.6680     0.8800     2.0990 ca         1 KHD      -0.180500
     31 C18          9.5920     2.3310     4.0020 ca         1 KHD      -0.164000
     32 C19          8.2130     2.2200     4.0350 ca         1 KHD      -0.095500
     33 H1           6.1340    -1.9390     2.1300 ha         1 KHD       0.145500
     34 H2           3.6790     1.9430     0.3020 ha         1 KHD       0.144500
     35 H3          11.3970     1.7570     3.0040 ha         1 KHD       0.132000
     36 H4           6.4790     1.3520     3.1290 ha         1 KHD       0.145000
     37 H5           0.3990     2.3440     7.1340 ha         1 KHD       0.138000
     38 H6          -2.4320    -4.3160     6.4140 hc         1 KHD       0.061200
     39 H7          -1.5870    -4.4240     7.9650 hc         1 KHD       0.061200
     40 H8          -0.7160    -5.7050     5.3500 hc         1 KHD       0.046367
     41 H9          -1.3700    -6.5470     6.7610 hc         1 KHD       0.046367
     42 H10          0.2090    -5.7550     6.8570 hc         1 KHD       0.046367
     43 H11         -1.8290    -1.8310     7.3540 hn         1 KHD       0.325500
     44 H12          0.5180    -1.9210     4.6440 ha         1 KHD       0.184000
     45 H13          1.7450     2.1560     5.0790 ha         1 KHD       0.146000
     46 H14         -0.8910     0.4090     7.9480 ha         1 KHD       0.132000
     47 H15          3.0130    -0.0360    -1.2100 hn         1 KHD       0.445300
     48 H16          1.5090     0.0010    -2.0700 hn         1 KHD       0.445300
     49 H17         -1.7800     0.0020     1.0740 h4         1 KHD       0.022100
     50 H18         -0.6600     0.0030     3.2620 ha         1 KHD       0.150000
     51 H19          3.6710    -1.9420     2.1280 ha         1 KHD       0.144500
     52 H20          6.1410     1.9340     0.3090 ha         1 KHD       0.145500
     53 H21         10.2380     0.3570     1.3400 ha         1 KHD       0.145000
     54 H22         10.1030     2.9460     4.7330 ha         1 KHD       0.129000
     55 H23          7.6460     2.7440     4.7960 ha         1 KHD       0.132000
@<TRIPOS>BOND
     1    24     1 ar
     2    24    25 ar
     3    14    15 2
     4    17    16 1
     5     1     2 ar
     6    25     4 ar
     7    15    16 1
     8    15    18 1
     9    12    21 ar
    10    12    20 ar
    11    21    13 ar
    12    20    11 ar
    13    13    18 1
    14    13    19 ar
    15     2    23 1
    16     2     3 ar
    17     4    22 1
    18     4     3 ar
    19    11    19 ar
    20    11    22 1
    21     3     5 1
    22     5     7 ar
    23     5    26 ar
    24     7    28 ar
    25    26     6 ar
    26    28    27 ar
    27     6    27 ar
    28    27    29 1
    29    30     9 ar
    30    30     8 ar
    31    29     8 1
    32     9    31 ar
    33     8    10 ar
    34    31    32 ar
    35    10    32 ar
    36     6    33 1
    37     7    34 1
    38     9    35 1
    39    10    36 1
    40    12    37 1
    41    16    38 1
    42    16    39 1
    43    17    40 1
    44    17    41 1
    45    17    42 1
    46    18    43 1
    47    19    44 1
    48    20    45 1
    49    21    46 1
    50    23    47 1
    51    23    48 1
    52    24    49 1
    53    25    50 1
    54    26    51 1
    55    28    52 1
    56    30    53 1
    57    31    54 1
    58    32    55 1
@<TRIPOS>SUBSTRUCTURE
     1 KHD         1 TEMP              0 ****  ****    0 ROOT
