@<TRIPOS>MOLECULE
KHM
   47    50     1     0     0
SMALL
bcc


@<TRIPOS>ATOM
      1 C10          0.0000     0.0000     0.0000 ca         1 KHM      -0.074000
      2 C13          1.6830    -0.0020    -4.9300 cc         1 KHM      -0.368800
      3 C17         -1.8970     1.4520    -7.1980 c3         1 KHM      -0.050400
      4 C20         -0.6010     0.2370    -9.5270 c3         1 KHM      -0.011400
      5 C21         -1.4560    -0.5920    -8.5650 c3         1 KHM      -0.167700
      6 C22         -0.9450    -2.0090    -8.5310 c          1 KHM       0.975600
      7 C26          2.8320    -0.0020    -5.7450 cc         1 KHM       0.510500
      8 C02          4.2110    -0.0010    -2.4690 cc         1 KHM       0.062800
      9 C03          3.5430    -0.0000    -1.2790 cd         1 KHM      -0.309300
     10 C04          2.1380    -0.0000    -1.2820 cd         1 KHM       0.440800
     11 C05          1.3950     0.0000     0.0000 ca         1 KHM      -0.151500
     12 C06          2.0860     0.0000     1.2110 ca         1 KHM      -0.074000
     13 C07          1.3880     0.0010     2.4010 ca         1 KHM      -0.113000
     14 C08          0.0050     0.0010     2.3940 ca         1 KHM      -0.099000
     15 C09         -0.6870     0.0010     1.1960 ca         1 KHM      -0.113000
     16 N11          1.4790    -0.0000    -2.4320 nd         1 KHM      -0.480000
     17 C12          2.1280    -0.0010    -3.5940 cd         1 KHM       0.239500
     18 N15          0.0150     0.0090    -6.7060 ns         1 KHM      -0.126900
     19 C16         -1.3770     0.0140    -7.1620 c3         1 KHM       0.039700
     20 C18         -1.0420     2.2800    -8.1590 c3         1 KHM      -0.028400
     21 C19         -1.1210     1.6750    -9.5620 c3         1 KHM      -0.033400
     22 O23         -0.9200    -2.7410    -9.6550 o          1 KHM      -0.892800
     23 O24         -0.5560    -2.4860    -7.4900 o          1 KHM      -0.892800
     24 O25         -0.6150     0.0040    -4.5750 o          1 KHM      -0.675100
     25 N28          3.4950    -0.0010    -3.6350 na         1 KHM       0.495200
     26 N27          3.8890    -0.0010    -4.9780 nd         1 KHM      -0.736100
     27 H101        -0.5430    -0.0000    -0.9380 ha         1 KHM       0.125500
     28 H172        -1.8380     1.8810    -6.2040 hc         1 KHM       0.016200
     29 H171        -2.9250     1.4550    -7.5380 hc         1 KHM       0.016200
     30 H201         0.4270     0.2340    -9.1870 hc         1 KHM       0.020200
     31 H202        -0.6600    -0.1910   -10.5200 hc         1 KHM       0.020200
     32 H211        -2.4860    -0.5830    -8.9020 hc         1 KHM       0.033700
     33 H261         2.8380    -0.0030    -6.8280 h4         1 KHM       0.022800
     34 H011         5.8810    -0.8760    -2.3480 ho         1 KHM       0.416000
     35 H031         4.0830     0.1690    -0.3550 ha         1 KHM       0.142000
     36 H061         3.1700    -0.0000     1.2170 ha         1 KHM       0.125500
     37 H071         1.9240     0.0010     3.3430 ha         1 KHM       0.101000
     38 H081        -0.5390     0.0020     3.3310 ha         1 KHM       0.095000
     39 H091        -1.7700     0.0010     1.1980 ha         1 KHM       0.101000
     40 H151         0.7600    -0.0320    -7.3730 hn         1 KHM       0.175500
     41 H161        -1.9860    -0.5710    -6.4840 h1         1 KHM       0.066700
     42 H181        -0.0130     2.2730    -7.8220 hc         1 KHM       0.000200
     43 H182        -1.4120     3.2980    -8.1850 hc         1 KHM       0.000200
     44 H192        -2.1520     1.6770    -9.8970 hc         1 KHM       0.000700
     45 H191        -0.5140     2.2610   -10.2410 hc         1 KHM       0.000700
     46 O01          5.5630    -0.0010    -2.4960 oh         1 KHM      -0.474100
     47 C14          0.2910     0.0040    -5.3870 c          1 KHM       0.627300
@<TRIPOS>BOND
     1     1    11 ar  
     2     1    15 ar  
     3     1    27 1   
     4     2     7 1   
     5     2    17 2   
     6     2    47 1   
     7     3    19 1   
     8     3    20 1   
     9     3    28 1   
    10     3    29 1   
    11     4     5 1   
    12     4    21 1   
    13     4    30 1   
    14     4    31 1   
    15     5     6 1   
    16     5    19 1   
    17     5    32 1   
    18     6    22 1   
    19     6    23 1   
    20     7    26 2   
    21     7    33 1   
    22     8     9 2   
    23     8    25 1   
    24     8    46 1   
    25     9    10 1   
    26     9    35 1   
    27    10    11 1   
    28    10    16 2   
    29    11    12 ar  
    30    12    13 ar  
    31    12    36 1   
    32    13    14 ar  
    33    13    37 1   
    34    14    15 ar  
    35    14    38 1   
    36    15    39 1   
    37    16    17 1   
    38    17    25 1   
    39    18    19 1   
    40    18    40 1   
    41    18    47 1   
    42    19    41 1   
    43    20    21 1   
    44    20    42 1   
    45    20    43 1   
    46    21    44 1   
    47    21    45 1   
    48    24    47 2   
    49    25    26 1   
    50    34    46 1   
@<TRIPOS>SUBSTRUCTURE
     1 KHM         1 TEMP              0 ****  ****    0 ROOT
