@<TRIPOS>MOLECULE
molecule
   47    50     1     0     0
SMALL
bcc


@<TRIPOS>ATOM
      1 C10          0.0000     0.0000     0.0000 ca         1 KHM      -0.091500
      2 C13          1.6830    -0.0020    -4.9300 cc         1 KHM      -0.344800
      3 C17         -1.8970     1.4520    -7.1980 c3         1 KHM      -0.100400
      4 C20         -0.6010     0.2370    -9.5270 c3         1 KHM      -0.057400
      5 C21         -1.4560    -0.5920    -8.5650 c3         1 KHM      -0.186700
      6 C22         -0.9450    -2.0090    -8.5310 c          1 KHM       0.886600
      7 C26          2.8320    -0.0020    -5.7450 cc         1 KHM       0.442500
      8 C02          4.2110    -0.0010    -2.4690 cd         1 KHM       0.239800
      9 C03          3.5430    -0.0000    -1.2790 cc         1 KHM      -0.344300
     10 C04          2.1380    -0.0000    -1.2820 cc         1 KHM       0.518800
     11 C05          1.3950     0.0000     0.0000 ca         1 KHM      -0.150500
     12 C06          2.0860     0.0000     1.2110 ca         1 KHM      -0.091500
     13 C07          1.3880     0.0010     2.4010 ca         1 KHM      -0.141500
     14 C08          0.0050     0.0010     2.3940 ca         1 KHM      -0.119000
     15 C09         -0.6870     0.0010     1.1960 ca         1 KHM      -0.141500
     16 N11          1.4790    -0.0000    -2.4320 nd         1 KHM      -0.633000
     17 C12          2.1280    -0.0010    -3.5940 cd         1 KHM       0.451500
     18 N15          0.0150     0.0090    -6.7060 ns         1 KHM      -0.531900
     19 C16         -1.3770     0.0140    -7.1620 c3         1 KHM       0.143700
     20 C18         -1.0420     2.2800    -8.1590 c3         1 KHM      -0.077400
     21 C19         -1.1210     1.6750    -9.5620 c3         1 KHM      -0.088400
     22 O23         -0.9200    -2.7410    -9.6550 o          1 KHM      -0.842800
     23 O24         -0.5560    -2.4860    -7.4900 o          1 KHM      -0.842800
     24 O25         -0.6150     0.0040    -4.5750 o          1 KHM      -0.627100
     25 N28          3.4950    -0.0010    -3.6350 na         1 KHM       0.012200
     26 N27          3.8890    -0.0010    -4.9780 nd         1 KHM      -0.577100
     27 H101        -0.5430    -0.0000    -0.9380 ha         1 KHM       0.153000
     28 H172        -1.8380     1.8810    -6.2040 hc         1 KHM       0.039200
     29 H171        -2.9250     1.4550    -7.5380 hc         1 KHM       0.039200
     30 H201         0.4270     0.2340    -9.1870 hc         1 KHM       0.042700
     31 H202        -0.6600    -0.1910   -10.5200 hc         1 KHM       0.042700
     32 H211        -2.4860    -0.5830    -8.9020 hc         1 KHM       0.053700
     33 H261         2.8380    -0.0030    -6.8280 h4         1 KHM       0.073800
     34 H011         5.8810    -0.8760    -2.3480 ho         1 KHM       0.440000
     35 H031         4.0830     0.1690    -0.3550 ha         1 KHM       0.161000
     36 H061         3.1700    -0.0000     1.2170 ha         1 KHM       0.153000
     37 H071         1.9240     0.0010     3.3430 ha         1 KHM       0.129500
     38 H081        -0.5390     0.0020     3.3310 ha         1 KHM       0.123000
     39 H091        -1.7700     0.0010     1.1980 ha         1 KHM       0.129500
     40 H151         0.7600    -0.0320    -7.3730 hn         1 KHM       0.311500
     41 H161        -1.9860    -0.5710    -6.4840 h1         1 KHM       0.087700
     42 H181        -0.0130     2.2730    -7.8220 hc         1 KHM       0.025200
     43 H182        -1.4120     3.2980    -8.1850 hc         1 KHM       0.025200
     44 H192        -2.1520     1.6770    -9.8970 hc         1 KHM       0.025200
     45 H191        -0.5140     2.2610   -10.2410 hc         1 KHM       0.025200
     46 O01          5.5630    -0.0010    -2.4960 oh         1 KHM      -0.495100
     47 C14          0.2910     0.0040    -5.3870 c          1 KHM       0.708300
@<TRIPOS>BOND
     1    23     6 1
     2     6     5 1
     3     6    22 1
     4     5    19 1
     5     5     4 1
     6    19     3 1
     7    19    18 1
     8    20     3 1
     9    20    21 1
    10     4    21 1
    11    24    47 2
    12    18    47 1
    13    47     2 1
    14     2     7 1
    15     2    17 2
    16     7    26 2
    17    17    16 1
    18    17    25 1
    19    16    10 2
    20    13    12 ar
    21    13    14 ar
    22    12    11 ar
    23    26    25 1
    24    25     8 1
    25    10    11 1
    26    10     9 1
    27    11     1 ar
    28    14    15 ar
    29     8     9 2
    30     8    46 1
    31     1    15 ar
    32     1    27 1
    33     3    28 1
    34     3    29 1
    35     4    30 1
    36     4    31 1
    37     5    32 1
    38     7    33 1
    39    46    34 1
    40     9    35 1
    41    12    36 1
    42    13    37 1
    43    14    38 1
    44    15    39 1
    45    18    40 1
    46    19    41 1
    47    20    42 1
    48    20    43 1
    49    21    44 1
    50    21    45 1
@<TRIPOS>SUBSTRUCTURE
     1 KHM         1 TEMP              0 ****  ****    0 ROOT
