@<TRIPOS>MOLECULE
molecule
   37    38     1     0     0
SMALL
bcc


@<TRIPOS>ATOM
      1 C1           0.0000     0.0000     0.0000 c3         1 KHO       0.314900
      2 O4          -0.4730    -0.0290    -1.3480 oh         1 KHO      -0.588800
      3 C2           1.5310     0.0000     0.0000 c3         1 KHO       0.110100
      4 O2           2.0090    -1.1650    -0.6760 oh         1 KHO      -0.597800
      5 C3           2.0300     0.0000     1.4480 c3         1 KHO       0.132100
      6 O1'          3.4500     0.1570     1.4670 os         1 KHO      -0.399600
      7 C1'          4.0080    -1.1480     1.6220 c3         1 KHO       0.307900
      8 C2'          5.5390    -1.0920     1.4360 c3         1 KHO       0.103100
      9 C3'          6.0410    -2.0820     2.5230 c3         1 KHO       0.091100
     10 O3'          7.3530    -1.7340     2.9690 oh         1 KHO      -0.594800
     11 O2'          5.9080    -1.5340     0.1290 oh         1 KHO      -0.594800
     12 O4'          3.7500    -1.6320     2.9450 os         1 KHO      -0.403600
     13 C4'          4.9900    -1.8520     3.6360 c3         1 KHO       0.140100
     14 C5'          4.8860    -3.0890     4.5310 c3         1 KHO       0.144400
     15 O5'          3.8890    -2.8710     5.5320 oh         1 KHO      -0.591800
     16 C4           1.3740     1.1670     2.1950 c3         1 KHO       0.113100
     17 O6           1.7100     1.0960     3.5820 oh         1 KHO      -0.579800
     18 C5          -0.1450     1.0740     2.0300 c3         1 KHO       0.110400
     19 O5          -0.4870     1.1720     0.6480 os         1 KHO      -0.428600
     20 H1          -0.3570    -0.8750     0.5290 h2         1 KHO       0.039700
     21 HO4         -1.4090    -0.1460    -1.3500 ho         1 KHO       0.416000
     22 H2           1.8900     0.8890    -0.5040 h1         1 KHO       0.064700
     23 HO2          2.2630    -0.9360    -1.5550 ho         1 KHO       0.419000
     24 H3           1.7570    -0.9340     1.9250 h1         1 KHO       0.088700
     25 H1'          3.5760    -1.8260     0.8960 h2         1 KHO       0.099700
     26 H2'          5.9100    -0.0930     1.6300 h1         1 KHO       0.078700
     27 H3'          6.0030    -3.1030     2.1610 h1         1 KHO       0.065700
     28 H6           7.9590    -2.4140     2.7260 ho         1 KHO       0.410000
     29 H5           6.5650    -0.9570    -0.2240 ho         1 KHO       0.412000
     30 H4'          5.2510    -0.9790     4.2220 h1         1 KHO       0.080700
     31 H5'1         4.6130    -3.9480     3.9300 h1         1 KHO       0.028700
     32 H5'2         5.8420    -3.2710     5.0080 h1         1 KHO       0.028700
     33 H5'          3.9760    -3.5210     6.2100 ho         1 KHO       0.399000
     34 H4           1.7250     2.1040     1.7800 h1         1 KHO       0.054700
     35 HO6          1.8720     1.9650     3.9110 ho         1 KHO       0.405000
     36 H51         -0.4900     0.1230     2.4180 h1         1 KHO       0.062200
     37 H52         -0.6160     1.8830     2.5740 h1         1 KHO       0.062200
@<TRIPOS>BOND
     1     1     2 1
     2     1     3 1
     3     1    19 1
     4     1    20 1
     5     2    21 1
     6     3     4 1
     7     3     5 1
     8     3    22 1
     9     4    23 1
    10     5     6 1
    11     5    16 1
    12     5    24 1
    13     6     7 1
    14     7     8 1
    15     7    12 1
    16     7    25 1
    17     8     9 1
    18     8    11 1
    19     8    26 1
    20     9    10 1
    21     9    13 1
    22     9    27 1
    23    10    28 1
    24    11    29 1
    25    12    13 1
    26    13    14 1
    27    13    30 1
    28    14    15 1
    29    14    31 1
    30    14    32 1
    31    15    33 1
    32    16    17 1
    33    16    18 1
    34    16    34 1
    35    17    35 1
    36    18    19 1
    37    18    36 1
    38    18    37 1
@<TRIPOS>SUBSTRUCTURE
     1 KHO         1 TEMP              0 ****  ****    0 ROOT
