@<TRIPOS>MOLECULE
KHO
   37    38     1     0     0
SMALL
bcc


@<TRIPOS>ATOM
      1 C1         -0.0450    0.0760   -0.0260 c3        1 KHO      0.306900
      2 O4         -0.4610    0.3970   -1.3250 oh        1 KHO     -0.598800
      3 C2          1.4800   -0.1660    0.0250 c3        1 KHO      0.068100
      4 O2          1.7980   -1.4000   -0.5970 oh        1 KHO     -0.603800
      5 C3          1.9440   -0.2590    1.4830 c3        1 KHO      0.110100
      6 O1'         3.3690   -0.1920    1.5400 os        1 KHO     -0.435600
      7 C1'         4.0040   -1.4560    1.6040 c3        1 KHO      0.297900
      8 C2'         5.5190   -1.2280    1.4030 c3        1 KHO      0.085100
      9 C3'         6.1600   -1.6200    2.7550 c3        1 KHO      0.123100
     10 O3'         6.9610   -0.5740    3.2660 oh        1 KHO     -0.584800
     11 O2'         6.0460   -2.0860    0.4130 oh        1 KHO     -0.590800
     12 O4'         3.7740   -1.8960    2.9360 os        1 KHO     -0.452600
     13 C4'         4.9770   -1.8160    3.7220 c3        1 KHO      0.102100
     14 C5'         5.0900   -3.1160    4.5160 c3        1 KHO      0.130400
     15 O5'         4.0240   -3.2520    5.4300 oh        1 KHO     -0.592800
     16 C4          1.4420    0.9590    2.2810 c3        1 KHO      0.112100
     17 O6          1.6710    0.7720    3.6660 oh        1 KHO     -0.594800
     18 C5         -0.0700    1.1290    2.1030 c3        1 KHO      0.138400
     19 O5         -0.4120    1.2220    0.7270 os        1 KHO     -0.444600
     20 H1         -0.6170   -0.8400    0.2890 h2        1 KHO      0.085700
     21 HO4        -0.3380    1.3490   -1.4570 ho        1 KHO      0.430000
     22 H2          2.0190    0.6710   -0.5000 h1        1 KHO      0.062700
     23 HO2         1.3670   -1.3900   -1.4630 ho        1 KHO      0.421000
     24 H3          1.5720   -1.2110    1.9510 h1        1 KHO      0.085700
     25 H1'         3.5430   -2.2010    0.9020 h2        1 KHO      0.104700
     26 H2'         5.7270   -0.1530    1.1520 h1        1 KHO      0.082700
     27 H3'         6.7630   -2.5620    2.6400 h1        1 KHO      0.073700
     28 H6          7.7390   -0.5170    2.6970 ho        1 KHO      0.413000
     29 H5          5.6220   -1.8470   -0.4210 ho        1 KHO      0.416000
     30 H4'         4.8710   -0.9350    4.4120 h1        1 KHO      0.090700
     31 H5'1        6.0180   -3.0940    5.1470 h1        1 KHO      0.056200
     32 H5'2        5.1170   -3.9950    3.8170 h1        1 KHO      0.056200
     33 H5'         3.2050   -3.2030    4.9200 ho        1 KHO      0.413000
     34 H4          1.9860    1.8800    1.9310 h1        1 KHO      0.062700
     35 HO6         2.5760    0.4390    3.7540 ho        1 KHO      0.428000
     36 H51        -0.4110    2.1040    2.5420 h1        1 KHO      0.071700
     37 H52        -0.6180    0.2780    2.5840 h1        1 KHO      0.071700
@<TRIPOS>BOND
     1    1    2 1   
     2    1    3 1   
     3    1   19 1   
     4    1   20 1   
     5    2   21 1   
     6    3    4 1   
     7    3    5 1   
     8    3   22 1   
     9    4   23 1   
    10    5    6 1   
    11    5   16 1   
    12    5   24 1   
    13    6    7 1   
    14    7    8 1   
    15    7   12 1   
    16    7   25 1   
    17    8    9 1   
    18    8   11 1   
    19    8   26 1   
    20    9   10 1   
    21    9   13 1   
    22    9   27 1   
    23   10   28 1   
    24   11   29 1   
    25   12   13 1   
    26   13   14 1   
    27   13   30 1   
    28   14   15 1   
    29   14   31 1   
    30   14   32 1   
    31   15   33 1   
    32   16   17 1   
    33   16   18 1   
    34   16   34 1   
    35   17   35 1   
    36   18   19 1   
    37   18   36 1   
    38   18   37 1   
@<TRIPOS>SUBSTRUCTURE
     1 KHO         1 TEMP              0 ****  ****    0 ROOT
