@<TRIPOS>MOLECULE
KHP
   32    33     1     0     0
SMALL
bcc


@<TRIPOS>ATOM
      1 O5'          0.0000     0.0000     0.0000 oh         1 KHP      -0.579800
      2 C5B          1.4290     0.0000     0.0000 c3         1 KHP       0.221400
      3 C4B          1.9390     0.0000     1.4420 c3         1 KHP       0.162100
      4 O4'          1.6260     1.2470     2.0820 os         1 KHP      -0.396600
      5 C1B          2.6920     1.6290     2.9600 c3         1 KHP       0.333900
      6 C2B          3.7980     0.5580     2.8420 c3         1 KHP       0.130100
      7 O2B          5.0920     1.1620     2.8440 oh         1 KHP      -0.575800
      8 C3B          3.4860    -0.0920     1.4660 c3         1 KHP       0.142100
      9 O3B          3.9260    -1.4510     1.4260 oh         1 KHP      -0.570800
     10 O1'          2.2130     1.6890     4.3050 os         1 KHP      -0.286900
     11 C1'          1.3240     2.7150     4.3590 ca         1 KHP       0.202100
     12 C2'          0.6870     3.0190     5.5530 ca         1 KHP      -0.196500
     13 C3'         -0.2170     4.0630     5.6070 ca         1 KHP       0.032000
     14 C4'         -0.4870     4.8040     4.4710 ca         1 KHP      -0.496200
     15 N1'         -1.4570     5.9200     4.5300 no         1 KHP       1.056200
     16 O3'         -2.0160     6.1860     5.5790 o          1 KHP      -0.457000
     17 O2'         -1.6950     6.5730     3.5300 o          1 KHP      -0.457000
     18 C5'          0.1460     4.5020     3.2790 ca         1 KHP       0.032000
     19 C6'          1.0550     3.4630     3.2220 ca         1 KHP      -0.196500
     20 H5B         -0.3140    -0.1550    -0.8750 ho         1 KHP       0.391000
     21 H5'1         1.7900    -0.8850    -0.5110 h1         1 KHP      -0.005300
     22 H5'2         1.7900     0.8840    -0.5110 h1         1 KHP      -0.005300
     23 H4'          1.5080    -0.8240     1.9980 h1         1 KHP       0.048700
     24 H1'          3.0840     2.5930     2.6600 h2         1 KHP       0.050700
     25 H2B          3.7070    -0.1720     3.6370 h1         1 KHP       0.043700
     26 H1           5.5970     0.8210     3.5630 ho         1 KHP       0.403000
     27 H3B          3.9190     0.4880     0.6590 h1         1 KHP       0.030700
     28 H2           4.6940    -1.5170     0.8820 ho         1 KHP       0.399000
     29 H2'          0.8990     2.4390     6.4430 ha         1 KHP       0.141500
     30 H3'         -0.7140     4.3000     6.5400 ha         1 KHP       0.130500
     31 H5'         -0.0650     5.0850     2.3910 ha         1 KHP       0.130500
     32 H6'          1.5510     3.2270     2.2880 ha         1 KHP       0.141500
@<TRIPOS>BOND
     1     1     2 1   
     2     1    20 1   
     3     2     3 1   
     4     2    21 1   
     5     2    22 1   
     6     3     4 1   
     7     3     8 1   
     8     3    23 1   
     9     4     5 1   
    10     5     6 1   
    11     5    10 1   
    12     5    24 1   
    13     6     7 1   
    14     6     8 1   
    15     6    25 1   
    16     7    26 1   
    17     8     9 1   
    18     8    27 1   
    19     9    28 1   
    20    10    11 1   
    21    11    12 ar  
    22    11    19 ar  
    23    12    13 ar  
    24    12    29 1   
    25    13    14 ar  
    26    13    30 1   
    27    14    15 1   
    28    14    18 ar  
    29    15    16 1   
    30    15    17 1   
    31    18    19 ar  
    32    18    31 1   
    33    19    32 1   
@<TRIPOS>SUBSTRUCTURE
     1 KHP         1 TEMP              0 ****  ****    0 ROOT
