@<TRIPOS>MOLECULE
KI1
   40    41     1     0     0
SMALL
bcc


@<TRIPOS>ATOM
      1 O2           0.0000     0.0000     0.0000 o          1 KI1      -0.653100
      2 C3           1.2120     0.0000     0.0000 c          1 KI1       0.590100
      3 C2           1.9660     0.0000     1.3050 c3         1 KI1      -0.081400
      4 C1           0.9720    -0.0000     2.4680 c3         1 KI1       0.118700
      5 S            1.8790     0.0010     4.0380 sh         1 KI1      -0.423900
      6 N            1.8860    -0.0060    -1.1680 n          1 KI1      -0.153800
      7 C6           1.1660    -0.0120    -2.4470 c3         1 KI1       0.049500
      8 C7           1.6740    -1.1830    -3.2940 c3         1 KI1      -0.058400
      9 C8           3.1960    -1.0860    -3.4300 c3         1 KI1       0.229100
     10 O1           3.5410     0.1610    -4.0350 oh         1 KI1      -0.582800
     11 C5           3.8400    -1.1770    -2.0450 c3         1 KI1      -0.058400
     12 C4           3.3550     0.0010    -1.1840 c3         1 KI1       0.049500
     13 C9           3.6950    -2.2190    -4.2900 ca         1 KI1      -0.145300
     14 C15          3.0150    -3.4220    -4.3130 ca         1 KI1      -0.055000
     15 C14          3.4730    -4.4600    -5.1020 ca         1 KI1      -0.105000
     16 C13          4.6130    -4.2950    -5.8680 ca         1 KI1       0.012400
     17 Cl           5.1900    -5.5990    -6.8590 cl         1 KI1       0.016600
     18 C11          5.2930    -3.0910    -5.8450 ca         1 KI1      -0.209300
     19 C10          4.8310    -2.0510    -5.0600 ca         1 KI1      -0.021000
     20 C12          6.5360    -2.9100    -6.6800 c3         1 KI1       0.646200
     21 F1           7.0410    -1.6200    -6.4900 f          1 KI1      -0.205300
     22 F2           7.4980    -3.8500    -6.2930 f          1 KI1      -0.205300
     23 F3           6.2210    -3.0940    -8.0300 f          1 KI1      -0.205300
     24 H1           2.5890     0.8850     1.3620 hc         1 KI1       0.044700
     25 H2           2.5890    -0.8850     1.3620 hc         1 KI1       0.044700
     26 H3           0.3490     0.8840     2.4100 h1         1 KI1       0.046200
     27 H4           0.3490    -0.8850     2.4100 h1         1 KI1       0.046200
     28 H5           1.0170    -0.0000     5.0480 hs         1 KI1       0.193800
     29 H6           0.1040    -0.1310    -2.2650 h1         1 KI1       0.038950
     30 H7           1.3470     0.9190    -2.9700 h1         1 KI1       0.038950
     31 H8           1.2210    -1.1400    -4.2770 hc         1 KI1       0.033450
     32 H9           1.4140    -2.1170    -2.8110 hc         1 KI1       0.033450
     33 H10          3.1180     0.2310    -4.8750 ho         1 KI1       0.401000
     34 H11          4.9180    -1.1310    -2.1440 hc         1 KI1       0.033450
     35 H12          3.5530    -2.1090    -1.5740 hc         1 KI1       0.033450
     36 H13          3.7100     0.9320    -1.6110 h1         1 KI1       0.038950
     37 H14          3.7300    -0.1090    -0.1740 h1         1 KI1       0.038950
     38 H15          2.1220    -3.5510    -3.7130 ha         1 KI1       0.121000
     39 H16          2.9400    -5.4030    -5.1200 ha         1 KI1       0.123000
     40 H17          5.3640    -1.1080    -5.0420 ha         1 KI1       0.140000
@<TRIPOS>BOND
     1     1     2 2   
     2     2     3 1   
     3     2     6 1   
     4     3     4 1   
     5     3    24 1   
     6     3    25 1   
     7     4     5 1   
     8     4    26 1   
     9     4    27 1   
    10     5    28 1   
    11     6     7 1   
    12     6    12 1   
    13     7     8 1   
    14     7    29 1   
    15     7    30 1   
    16     8     9 1   
    17     8    31 1   
    18     8    32 1   
    19     9    10 1   
    20     9    11 1   
    21     9    13 1   
    22    10    33 1   
    23    11    12 1   
    24    11    34 1   
    25    11    35 1   
    26    12    36 1   
    27    12    37 1   
    28    13    14 ar  
    29    13    19 ar  
    30    14    15 ar  
    31    14    38 1   
    32    15    16 ar  
    33    15    39 1   
    34    16    17 1   
    35    16    18 ar  
    36    18    19 ar  
    37    18    20 1   
    38    19    40 1   
    39    20    21 1   
    40    20    22 1   
    41    20    23 1   
@<TRIPOS>SUBSTRUCTURE
     1 KI1         1 TEMP              0 ****  ****    0 ROOT
