@<TRIPOS>MOLECULE
molecule
   40    41     1     0     0
SMALL
bcc


@<TRIPOS>ATOM
      1 O2           0.0000     0.0000     0.0000 o          1 KI1      -0.613100
      2 C3           1.2120     0.0000     0.0000 c          1 KI1       0.666100
      3 C2           1.9660     0.0000     1.3050 c3         1 KI1      -0.141400
      4 C1           0.9720    -0.0000     2.4680 c3         1 KI1       0.059700
      5 S            1.8790     0.0010     4.0380 sh         1 KI1      -0.445900
      6 N            1.8860    -0.0060    -1.1680 n          1 KI1      -0.491800
      7 C6           1.1660    -0.0120    -2.4470 c3         1 KI1       0.107500
      8 C7           1.6740    -1.1830    -3.2940 c3         1 KI1      -0.102900
      9 C8           3.1960    -1.0860    -3.4300 c3         1 KI1       0.203100
     10 O1           3.5410     0.1610    -4.0350 oh         1 KI1      -0.597800
     11 C5           3.8400    -1.1770    -2.0450 c3         1 KI1      -0.102900
     12 C4           3.3550     0.0010    -1.1840 c3         1 KI1       0.107500
     13 C9           3.6950    -2.2190    -4.2900 ca         1 KI1      -0.132300
     14 C15          3.0150    -3.4220    -4.3130 ca         1 KI1      -0.087000
     15 C14          3.4730    -4.4600    -5.1020 ca         1 KI1      -0.127000
     16 C13          4.6130    -4.2950    -5.8680 ca         1 KI1       0.071400
     17 Cl           5.1900    -5.5990    -6.8590 cl         1 KI1      -0.075400
     18 C11          5.2930    -3.0910    -5.8450 ca         1 KI1      -0.178300
     19 C10          4.8310    -2.0510    -5.0600 ca         1 KI1      -0.061000
     20 C12          6.5360    -2.9100    -6.6800 c3         1 KI1       0.677200
     21 F1           7.0410    -1.6200    -6.4900 f          1 KI1      -0.217300
     22 F2           7.4980    -3.8500    -6.2930 f          1 KI1      -0.217300
     23 F3           6.2210    -3.0940    -8.0300 f          1 KI1      -0.217300
     24 H1           2.5890     0.8850     1.3620 hc         1 KI1       0.075200
     25 H2           2.5890    -0.8850     1.3620 hc         1 KI1       0.075200
     26 H3           0.3490     0.8840     2.4100 h1         1 KI1       0.073200
     27 H4           0.3490    -0.8850     2.4100 h1         1 KI1       0.073200
     28 H5           1.0170    -0.0000     5.0480 hs         1 KI1       0.228800
     29 H6           0.1040    -0.1310    -2.2650 h1         1 KI1       0.065950
     30 H7           1.3470     0.9190    -2.9700 h1         1 KI1       0.065950
     31 H8           1.2210    -1.1400    -4.2770 hc         1 KI1       0.061200
     32 H9           1.4140    -2.1170    -2.8110 hc         1 KI1       0.061200
     33 H10          3.1180     0.2310    -4.8750 ho         1 KI1       0.411000
     34 H11          4.9180    -1.1310    -2.1440 hc         1 KI1       0.061200
     35 H12          3.5530    -2.1090    -1.5740 hc         1 KI1       0.061200
     36 H13          3.7100     0.9320    -1.6110 h1         1 KI1       0.065950
     37 H14          3.7300    -0.1090    -0.1740 h1         1 KI1       0.065950
     38 H15          2.1220    -3.5510    -3.7130 ha         1 KI1       0.148000
     39 H16          2.9400    -5.4030    -5.1200 ha         1 KI1       0.155000
     40 H17          5.3640    -1.1080    -5.0420 ha         1 KI1       0.171000
@<TRIPOS>BOND
     1     4     5 1
     2     4     3 1
     3     1     2 2
     4     3     2 1
     5     2     6 1
     6    15    14 ar
     7    15    16 ar
     8    14    13 ar
     9     6     7 1
    10     6    12 1
    11     8     7 1
    12     8     9 1
    13    17    16 1
    14    16    18 ar
    15    13     9 1
    16    13    19 ar
    17    12    11 1
    18     9    11 1
    19     9    10 1
    20    18    19 ar
    21    18    20 1
    22    20    21 1
    23    20    22 1
    24    20    23 1
    25     3    24 1
    26     3    25 1
    27     4    26 1
    28     4    27 1
    29     5    28 1
    30     7    29 1
    31     7    30 1
    32     8    31 1
    33     8    32 1
    34    10    33 1
    35    11    34 1
    36    11    35 1
    37    12    36 1
    38    12    37 1
    39    14    38 1
    40    15    39 1
    41    19    40 1
@<TRIPOS>SUBSTRUCTURE
     1 KI1         1 TEMP              0 ****  ****    0 ROOT
