@<TRIPOS>MOLECULE
KI2
   42    43     1     0     0
SMALL
bcc


@<TRIPOS>ATOM
      1 O1           0.0000     0.0000     0.0000 os         1 KI2      -0.431900
      2 C2          -4.8750     0.0020     0.7810 ca         1 KI2      -0.109000
      3 C3          -4.1820     1.2100     0.8630 ca         1 KI2      -0.115500
      4 C4          -2.7970     1.2090     1.0280 ca         1 KI2      -0.074000
      5 C5          -2.1140     0.0010     1.1110 ca         1 KI2      -0.099300
      6 C6          -2.7970    -1.2070     1.0300 ca         1 KI2      -0.074000
      7 C7          -4.1830    -1.2070     0.8650 ca         1 KI2      -0.115500
      8 C8           1.3670     0.0000     0.0000 c          1 KI2       0.690100
      9 O9           2.0630     0.0000     1.0100 o          1 KI2      -0.625000
     10 N10          1.8240    -0.0020    -1.2960 ns         1 KI2      -0.152900
     11 C11          3.2330    -0.0020    -1.6490 c3         1 KI2       0.034700
     12 C12          3.5520    -1.3110    -2.4010 c3         1 KI2       0.006900
     13 C13          3.5990    -2.5460    -1.5360 ca         1 KI2      -0.063300
     14 C14          4.8010    -2.9240    -0.9560 ca         1 KI2      -0.089500
     15 C15          4.8450    -4.0670    -0.1570 ca         1 KI2      -0.107000
     16 C16          3.6880    -4.8160     0.0540 ca         1 KI2      -0.121000
     17 C17          2.4860    -4.4230    -0.5360 ca         1 KI2      -0.107000
     18 C18          2.4410    -3.2820    -1.3350 ca         1 KI2      -0.089500
     19 C19         -0.6240     0.0010     1.2880 c3         1 KI2       0.283700
     20 C21          3.5420     1.2980    -2.4160 c3         1 KI2       0.076100
     21 O22          2.8860     1.2850    -3.6770 oh         1 KI2      -0.601800
     22 C            3.1200     2.5510    -1.6710 c          1 KI2       0.957600
     23 O            2.2810     3.3500    -2.0690 o          1 KI2      -0.878300
     24 OXT          3.8080     2.7240    -0.5140 o          1 KI2      -0.878300
     25 H4          -2.2570     2.1460     1.0920 ha         1 KI2       0.112000
     26 H6          -2.2570    -2.1430     1.0950 ha         1 KI2       0.112000
     27 H7          -4.7210    -2.1450     0.8010 ha         1 KI2       0.096000
     28 H10          1.1510    -0.0020    -2.0360 hn         1 KI2       0.177500
     29 H11          3.8100     0.0060    -0.7320 h1         1 KI2       0.081700
     30 H121         4.5130    -1.1990    -2.8880 hc         1 KI2       0.015700
     31 H122         2.7970    -1.4580    -3.1640 hc         1 KI2       0.015700
     32 H14          5.7210    -2.4280    -1.2420 ha         1 KI2       0.105500
     33 H15          5.7790    -4.3730     0.3000 ha         1 KI2       0.093500
     34 H16          3.7170    -5.6900     0.6930 ha         1 KI2       0.092000
     35 H17          1.5870    -5.0070    -0.3750 ha         1 KI2       0.093500
     36 H18          1.6470    -3.2380    -2.0700 ha         1 KI2       0.105500
     37 H191        -0.3240    -0.8830     1.8370 h1         1 KI2       0.011200
     38 H192        -0.3230     0.8860     1.8360 h1         1 KI2       0.011200
     39 H21          4.6100     1.3470    -2.5870 h1         1 KI2      -0.004300
     40 H22          3.4590     1.6470    -4.3330 ho         1 KI2       0.374000
     41 H2          -5.9500     0.0020     0.6530 ha         1 KI2       0.093000
     42 H3          -4.7200     2.1480     0.7980 ha         1 KI2       0.096000
@<TRIPOS>BOND
     1     1     8 1   
     2     1    19 1   
     3     2     3 ar  
     4     2     7 ar  
     5     2    41 1   
     6     3     4 ar  
     7     3    42 1   
     8     4     5 ar  
     9     4    25 1   
    10     5     6 ar  
    11     5    19 1   
    12     6     7 ar  
    13     6    26 1   
    14     7    27 1   
    15     8     9 2   
    16     8    10 1   
    17    10    11 1   
    18    10    28 1   
    19    11    12 1   
    20    11    20 1   
    21    11    29 1   
    22    12    13 1   
    23    12    30 1   
    24    12    31 1   
    25    13    14 ar  
    26    13    18 ar  
    27    14    15 ar  
    28    14    32 1   
    29    15    16 ar  
    30    15    33 1   
    31    16    17 ar  
    32    16    34 1   
    33    17    18 ar  
    34    17    35 1   
    35    18    36 1   
    36    19    37 1   
    37    19    38 1   
    38    20    21 1   
    39    20    22 1   
    40    20    39 1   
    41    21    40 1   
    42    22    23 1   
    43    22    24 1   
@<TRIPOS>SUBSTRUCTURE
     1 KI2         1 TEMP              0 ****  ****    0 ROOT
