@<TRIPOS>MOLECULE
KI3
   32    34     1     0     0
SMALL
bcc


@<TRIPOS>ATOM
      1 O01          0.0000     0.0000     0.0000 oh         1 KI3      -0.609300
      2 C02          1.3560     0.0000     0.0000 ca         1 KI3       0.635600
      3 C03          2.0430     0.0000     1.2130 ca         1 KI3      -0.256300
      4 C04          3.4070    -0.0050     1.2140 ca         1 KI3       0.026700
      5 C05          4.1720    -0.0060     2.5120 c3         1 KI3       0.051200
      6 C06          4.0930    -0.0100    -0.0250 ca         1 KI3      -0.258100
      7 C07          3.3400    -0.0090    -1.2050 ca         1 KI3       0.525600
      8 N08          2.0040    -0.0050    -1.1460 nb         1 KI3      -0.600000
      9 S09          4.4070    -0.0150    -2.6040 ss         1 KI3      -0.254900
     10 C10          5.8460    -0.0190    -1.6050 cc         1 KI3      -0.145600
     11 C11          5.5210    -0.0150    -0.2820 cd         1 KI3       0.156800
     12 N12          6.4690    -0.0160     0.7270 nv         1 KI3      -0.530600
     13 C13          7.1680    -0.0250    -2.1040 c          1 KI3       0.682900
     14 O14          8.1070     0.1280    -1.3430 o          1 KI3      -0.566100
     15 C15          7.4110    -0.2180    -3.5510 ca         1 KI3      -0.178600
     16 C16          8.5820     0.2670    -4.1350 ca         1 KI3      -0.065000
     17 C17          8.8030     0.0840    -5.4840 ca         1 KI3      -0.112000
     18 C18          7.8670    -0.5780    -6.2580 ca         1 KI3      -0.075000
     19 C19          6.7030    -1.0610    -5.6840 ca         1 KI3      -0.112000
     20 C20          6.4720    -0.8900    -4.3350 ca         1 KI3      -0.065000
     21 H011        -0.3140    -0.7810    -0.4240 ho         1 KI3       0.417000
     22 H031         1.5020     0.1290     2.1420 ha         1 KI3       0.133000
     23 H052         4.8000    -0.8870     2.5600 hc         1 KI3       0.017367
     24 H053         4.7910     0.8820     2.5670 hc         1 KI3       0.017367
     25 H051         3.4760    -0.0120     3.3410 hc         1 KI3       0.017367
     26 H122         6.8220     0.8500     1.0830 hn         1 KI3       0.286800
     27 H121         6.8340    -0.8830     1.0700 hn         1 KI3       0.286800
     28 H161         9.3160     0.7860    -3.5300 ha         1 KI3       0.130000
     29 H171         9.7110     0.4590    -5.9390 ha         1 KI3       0.106000
     30 H181         8.0440    -0.7170    -7.3170 ha         1 KI3       0.102000
     31 H191         5.9750    -1.5800    -6.2950 ha         1 KI3       0.106000
     32 H201         5.5610    -1.2680    -3.8880 ha         1 KI3       0.130000
@<TRIPOS>BOND
     1     1     2 1   
     2     1    21 1   
     3     2     3 ar  
     4     2     8 ar  
     5     3     4 ar  
     6     3    22 1   
     7     4     5 1   
     8     4     6 ar  
     9     5    23 1   
    10     5    24 1   
    11     5    25 1   
    12     6     7 ar  
    13     6    11 1   
    14     7     8 ar  
    15     7     9 1   
    16     9    10 1   
    17    10    11 2   
    18    10    13 1   
    19    11    12 1   
    20    12    26 1   
    21    12    27 1   
    22    13    14 2   
    23    13    15 1   
    24    15    16 ar  
    25    15    20 ar  
    26    16    17 ar  
    27    16    28 1   
    28    17    18 ar  
    29    17    29 1   
    30    18    19 ar  
    31    18    30 1   
    32    19    20 ar  
    33    19    31 1   
    34    20    32 1   
@<TRIPOS>SUBSTRUCTURE
     1 KI3         1 TEMP              0 ****  ****    0 ROOT
