@<TRIPOS>MOLECULE
molecule
   32    34     1     0     0
SMALL
bcc


@<TRIPOS>ATOM
      1 O01          0.0000     0.0000     0.0000 oh         1 KI3      -0.619300
      2 C02          1.3560     0.0000     0.0000 ca         1 KI3       0.672600
      3 C03          2.0430     0.0000     1.2130 ca         1 KI3      -0.278300
      4 C04          3.4070    -0.0050     1.2140 ca         1 KI3       0.027700
      5 C05          4.1720    -0.0060     2.5120 c3         1 KI3      -0.046800
      6 C06          4.0930    -0.0100    -0.0250 ca         1 KI3      -0.258100
      7 C07          3.3400    -0.0090    -1.2050 ca         1 KI3       0.517600
      8 N08          2.0040    -0.0050    -1.1460 nb         1 KI3      -0.731000
      9 S09          4.4070    -0.0150    -2.6040 ss         1 KI3      -0.105900
     10 C10          5.8460    -0.0190    -1.6050 cc         1 KI3      -0.190600
     11 C11          5.5210    -0.0150    -0.2820 cd         1 KI3       0.271800
     12 N12          6.4690    -0.0160     0.7270 nv         1 KI3      -0.963600
     13 C13          7.1680    -0.0250    -2.1040 c          1 KI3       0.618900
     14 O14          8.1070     0.1280    -1.3430 o          1 KI3      -0.523100
     15 C15          7.4110    -0.2180    -3.5510 ca         1 KI3      -0.168600
     16 C16          8.5820     0.2670    -4.1350 ca         1 KI3      -0.088500
     17 C17          8.8030     0.0840    -5.4840 ca         1 KI3      -0.136000
     18 C18          7.8670    -0.5780    -6.2580 ca         1 KI3      -0.105000
     19 C19          6.7030    -1.0610    -5.6840 ca         1 KI3      -0.136000
     20 C20          6.4720    -0.8900    -4.3350 ca         1 KI3      -0.088500
     21 H011        -0.3140    -0.7810    -0.4240 ho         1 KI3       0.438000
     22 H031         1.5020     0.1290     2.1420 ha         1 KI3       0.155000
     23 H052         4.8000    -0.8870     2.5600 hc         1 KI3       0.052367
     24 H053         4.7910     0.8820     2.5670 hc         1 KI3       0.052367
     25 H051         3.4760    -0.0120     3.3410 hc         1 KI3       0.052367
     26 H122         6.8220     0.8500     1.0830 hn         1 KI3       0.441300
     27 H121         6.8340    -0.8830     1.0700 hn         1 KI3       0.441300
     28 H161         9.3160     0.7860    -3.5300 ha         1 KI3       0.147500
     29 H171         9.7110     0.4590    -5.9390 ha         1 KI3       0.135000
     30 H181         8.0440    -0.7170    -7.3170 ha         1 KI3       0.132000
     31 H191         5.9750    -1.5800    -6.2950 ha         1 KI3       0.135000
     32 H201         5.5610    -1.2680    -3.8880 ha         1 KI3       0.147500
@<TRIPOS>BOND
     1    14    13 2
     2    12    11 1
     3     5     4 1
     4    13    15 1
     5    13    10 1
     6    20    15 ar
     7    20    19 ar
     8    11    10 2
     9    11     6 1
    10    15    16 ar
    11    10     9 1
    12    19    18 ar
    13     4     6 ar
    14     4     3 ar
    15     6     7 ar
    16    16    17 ar
    17    18    17 ar
    18     3     2 ar
    19     9     7 1
    20     7     8 ar
    21     2     8 ar
    22     2     1 1
    23     1    21 1
    24     3    22 1
    25     5    23 1
    26     5    24 1
    27     5    25 1
    28    12    26 1
    29    12    27 1
    30    16    28 1
    31    17    29 1
    32    18    30 1
    33    19    31 1
    34    20    32 1
@<TRIPOS>SUBSTRUCTURE
     1 KI3         1 TEMP              0 ****  ****    0 ROOT
