@<TRIPOS>MOLECULE
KI5
   24    24     1     0     0
SMALL
bcc


@<TRIPOS>ATOM
      1 O           0.1130    0.2140   -0.1900 oh        1 KI5     -0.594800
      2 C6          1.5270    0.1800   -0.0680 c3        1 KI5      0.138400
      3 C5          1.8310    0.1080    1.4150 c3        1 KI5     -0.046300
      4 S           3.5940    0.1190    1.5430 ss        1 KI5     -0.207400
      5 C4          3.9180    0.0270    3.2350 ca        1 KI5      0.738300
      6 N           5.2490    0.0220    3.5610 nb        1 KI5     -0.711500
      7 C3          5.5450   -0.0490    4.8810 ca        1 KI5      0.465100
      8 C7          6.9780   -0.0570    5.3060 c3        1 KI5     -0.155400
      9 C2          4.5320   -0.1140    5.8650 ca        1 KI5     -0.386600
     10 N1          2.8730   -0.0320    4.1140 nb        1 KI5     -0.711500
     11 C1          3.1900   -0.1030    5.4320 ca        1 KI5      0.465100
     12 C           2.0920   -0.1700    6.4420 c3        1 KI5     -0.155400
     13 H          -0.0780    0.2590   -1.1350 ho        1 KI5      0.403000
     14 H61C        1.9710    1.1080   -0.5210 h1        1 KI5      0.034700
     15 H62C        1.9350   -0.7210   -0.6030 h1        1 KI5      0.034700
     16 H51C        1.3700    0.9770    1.9450 h1        1 KI5      0.093200
     17 H52C        1.3870   -0.8190    1.8550 h1        1 KI5      0.093200
     18 H71C        7.4840    0.8860    4.9810 hc        1 KI5      0.058867
     19 H72C        7.5170   -0.9210    4.8430 hc        1 KI5      0.058867
     20 H73C        7.0510   -0.1410    6.4170 hc        1 KI5      0.058867
     21 H2          4.7830   -0.1710    6.9300 ha        1 KI5      0.152000
     22 HC1         1.4570   -1.0750    6.2670 hc        1 KI5      0.058867
     23 HC2         2.5180   -0.2230    7.4730 hc        1 KI5      0.058867
     24 HC3         1.4390    0.7350    6.3680 hc        1 KI5      0.058867
@<TRIPOS>BOND
     1    1    2 1   
     2    1   13 1   
     3    2    3 1   
     4    2   14 1   
     5    2   15 1   
     6    3    4 1   
     7    3   16 1   
     8    3   17 1   
     9    4    5 1   
    10    5    6 ar  
    11    5   10 ar  
    12    6    7 ar  
    13    7    8 1   
    14    7    9 ar  
    15    8   18 1   
    16    8   19 1   
    17    8   20 1   
    18    9   11 ar  
    19    9   21 1   
    20   10   11 ar  
    21   11   12 1   
    22   12   22 1   
    23   12   23 1   
    24   12   24 1   
@<TRIPOS>SUBSTRUCTURE
     1 KI5         1 TEMP              0 ****  ****    0 ROOT
