@<TRIPOS>MOLECULE
molecule
   24    24     1     0     0
SMALL
bcc


@<TRIPOS>ATOM
      1 O            0.0000     0.0000     0.0000 oh         1 KI5      -0.605800
      2 C6           1.4290     0.0000     0.0000 c3         1 KI5       0.151400
      3 C5           1.9380     0.0000     1.4430 c3         1 KI5      -0.011300
      4 S            3.7480    -0.0000     1.4440 ss         1 KI5      -0.254400
      5 C4           4.0530     0.0000     3.1800 ca         1 KI5       0.799300
      6 N            5.3050    -0.0000     3.6160 nb         1 KI5      -0.744500
      7 C3           5.5680    -0.0010     4.9120 ca         1 KI5       0.480100
      8 C7           6.9940    -0.0000     5.4010 c3         1 KI5      -0.144900
      9 C2           4.5170    -0.0010     5.8160 ca         1 KI5      -0.394600
     10 N1           3.0260     0.0050     4.0170 nb         1 KI5      -0.744500
     11 C1           3.2200    -0.0010     5.3250 ca         1 KI5       0.480100
     12 C            2.0470    -0.0010     6.2710 c3         1 KI5      -0.144900
     13 H           -0.3140    -0.0160    -0.8890 ho         1 KI5       0.407000
     14 H61C         1.7900     0.8850    -0.5100 h1         1 KI5       0.029200
     15 H62C         1.7900    -0.8850    -0.5100 h1         1 KI5       0.029200
     16 H51C         1.5770    -0.8850     1.9540 h1         1 KI5       0.088200
     17 H52C         1.5770     0.8850     1.9540 h1         1 KI5       0.088200
     18 H71C         7.1700     0.8860     6.0000 hc         1 KI5       0.057867
     19 H72C         7.6670    -0.0010     4.5520 hc         1 KI5       0.057867
     20 H73C         7.1700    -0.8830     6.0030 hc         1 KI5       0.057867
     21 H2           4.7050    -0.0040     6.8830 ha         1 KI5       0.146000
     22 HC1          1.1270    -0.0740     5.7040 hc         1 KI5       0.057867
     23 HC2          2.0460     0.9180     6.8450 hc         1 KI5       0.057867
     24 HC3          2.1250    -0.8470     6.9430 hc         1 KI5       0.057867
@<TRIPOS>BOND
     1     1     2 1
     2     2     3 1
     3     3     4 1
     4     4     5 1
     5     5     6 ar
     6     5    10 ar
     7     6     7 ar
     8     7     8 1
     9     7     9 ar
    10     9    11 ar
    11    10    11 ar
    12    11    12 1
    13     1    13 1
    14     2    14 1
    15     2    15 1
    16     3    16 1
    17     3    17 1
    18     8    18 1
    19     8    19 1
    20     8    20 1
    21     9    21 1
    22    12    22 1
    23    12    23 1
    24    12    24 1
@<TRIPOS>SUBSTRUCTURE
     1 KI5         1 TEMP              0 ****  ****    0 ROOT
