@<TRIPOS>MOLECULE
molecule
   23    25     1     0     0
SMALL
bcc


@<TRIPOS>ATOM
      1 Cl1          0.0000     0.0000     0.0000 cl         1 KI9      -0.057400
      2 C10          1.7370     0.0000     0.0000 ca         1 KI9       0.027400
      3 C9           2.4260     0.0000     1.2050 ca         1 KI9       0.010400
      4 Cl2          1.5490     0.0000     2.7030 cl         1 KI9      -0.057400
      5 C8           3.8050    -0.0000     1.2150 ca         1 KI9       0.083400
      6 Cl3          4.6630    -0.0020     2.7240 cl         1 KI9      -0.067400
      7 C11          2.4220    -0.0040    -1.2020 ca         1 KI9       0.095100
      8 C12          3.8190    -0.0050    -1.2080 ca         1 KI9       0.007800
      9 C7           4.5100    -0.0010     0.0110 cp         1 KI9      -0.071000
     10 C4           5.9470    -0.0030    -0.3220 cp         1 KI9      -0.074000
     11 C3           6.0310    -0.0030    -1.7220 ca         1 KI9       0.013800
     12 C2           7.2840    -0.0040    -2.3290 ca         1 KI9       0.004400
     13 Cl5          7.4090    -0.0040    -4.0610 cl         1 KI9      -0.098400
     14 C5           7.1070    -0.0040     0.4480 ca         1 KI9      -0.054000
     15 C6           8.3400    -0.0050    -0.1710 ca         1 KI9       0.000400
     16 Cl6          9.7890    -0.0070     0.7860 cl         1 KI9      -0.091400
     17 C1           8.4260    -0.0050    -1.5560 ca         1 KI9      -0.077000
     18 N13          4.7460    -0.0100    -2.2360 na         1 KI9      -0.165300
     19 O14          1.7370    -0.0100    -2.3760 oh         1 KI9      -0.503100
     20 H14          1.3740     0.8460    -2.5330 ho         1 KI9       0.427000
     21 H5           7.0430     0.0800     1.5260 ha         1 KI9       0.162000
     22 H1           9.3980    -0.0060    -2.0340 ha         1 KI9       0.163000
     23 H13          4.5200    -0.0180    -3.2110 hn         1 KI9       0.321700
@<TRIPOS>BOND
     1     1     2 1
     2     2     3 ar
     3     2     7 ar
     4     3     4 1
     5     3     5 ar
     6     5     6 1
     7     5     9 ar
     8     7     8 ar
     9     7    19 1
    10     8     9 ar
    11     8    18 1
    12     9    10 1
    13    10    11 ar
    14    10    14 ar
    15    11    12 ar
    16    11    18 1
    17    12    13 1
    18    12    17 ar
    19    14    15 ar
    20    15    16 1
    21    15    17 ar
    22    19    20 1
    23    14    21 1
    24    17    22 1
    25    18    23 1
@<TRIPOS>SUBSTRUCTURE
     1 KI9         1 TEMP              0 ****  ****    0 ROOT
