@<TRIPOS>MOLECULE
KI9
   23    25     1     0     0
SMALL
bcc


@<TRIPOS>ATOM
      1 CL1         0.0420    0.1410   -0.0630 cl        1 KI9     -0.060400
      2 C10         1.7410    0.0980   -0.0340 ca        1 KI9     -0.038600
      3 C9          2.4240    0.0530    1.2010 ca        1 KI9      0.022400
      4 CL2         1.5310    0.0440    2.6420 cl        1 KI9     -0.043400
      5 C8          3.8240    0.0160    1.2500 ca        1 KI9      0.047400
      6 CL3         4.6330   -0.0370    2.7370 cl        1 KI9     -0.051400
      7 C11         2.4440    0.1060   -1.2440 ca        1 KI9      0.122100
      8 C12         3.8520    0.0700   -1.2020 ca        1 KI9     -0.012200
      9 C7          4.5510    0.0240    0.0580 cp        1 KI9     -0.043000
     10 C4          5.9670   -0.0040   -0.2670 cp        1 KI9     -0.070000
     11 C3          6.0510    0.0260   -1.7130 ca        1 KI9      0.008800
     12 C2          7.3010    0.0080   -2.3520 ca        1 KI9     -0.013600
     13 CL5         7.3980    0.0430   -4.0450 cl        1 KI9     -0.078400
     14 C5          7.1290   -0.0510    0.4930 ca        1 KI9     -0.054000
     15 C6          8.3580   -0.0670   -0.1690 ca        1 KI9     -0.014600
     16 CL6         9.7920   -0.1230    0.7430 cl        1 KI9     -0.083400
     17 C1          8.4520   -0.0380   -1.5700 ca        1 KI9     -0.079000
     18 N13         4.7680    0.0700   -2.2590 na        1 KI9     -0.162300
     19 O14         1.8710    0.1480   -2.4920 oh        1 KI9     -0.493100
     20 H14         0.9050    0.1710   -2.3850 ho        1 KI9      0.440000
     21 H5          7.0800   -0.0740    1.5930 ha        1 KI9      0.165000
     22 H1          9.4430   -0.0520   -2.0540 ha        1 KI9      0.164000
     23 H13         4.5350    0.0970   -3.2170 hn        1 KI9      0.327700
@<TRIPOS>BOND
     1    1    2 1   
     2    2    3 ar  
     3    2    7 ar  
     4    3    4 1   
     5    3    5 ar  
     6    5    6 1   
     7    5    9 ar  
     8    7    8 ar  
     9    7   19 1   
    10    8    9 ar  
    11    8   18 1   
    12    9   10 1   
    13   10   11 ar  
    14   10   14 ar  
    15   11   12 ar  
    16   11   18 1   
    17   12   13 1   
    18   12   17 ar  
    19   14   15 ar  
    20   14   21 1   
    21   15   16 1   
    22   15   17 ar  
    23   17   22 1   
    24   18   23 1   
    25   19   20 1   
@<TRIPOS>SUBSTRUCTURE
     1 KI9         1 TEMP              0 ****  ****    0 ROOT
