@<TRIPOS>MOLECULE
molecule
   20    20     1     0     0
SMALL
bcc


@<TRIPOS>ATOM
      1 O2           0.0000     0.0000     0.0000 o          1 KIA      -0.516100
      2 C4           1.2160     0.0000     0.0000 c          1 KIA       0.582500
      3 C5           1.9480     0.0000     1.2750 cc         1 KIA      -0.327200
      4 C6           3.2960    -0.0010     1.2830 cd         1 KIA       0.076900
      5 O3           3.9680    -0.0010     2.4590 os         1 KIA      -0.294900
      6 C7           3.1850    -0.0020     3.6540 c3         1 KIA       0.123700
      7 C1           4.0410     0.0000     0.0000 c          1 KIA       0.579500
      8 O1           5.2540    -0.0010     0.0000 o          1 KIA      -0.439100
      9 C3           1.9480    -0.0050    -1.2750 cd         1 KIA      -0.327200
     10 C2           3.2960     0.0000    -1.2830 cc         1 KIA       0.076900
     11 O4           3.9680     0.0000    -2.4590 os         1 KIA      -0.294900
     12 C8           3.1850     0.0000    -3.6540 c3         1 KIA       0.123700
     13 H5           1.4020     0.0010     2.2110 ha         1 KIA       0.164000
     14 H7           2.5600     0.8830     3.6770 h1         1 KIA       0.051033
     15 H7A          3.8410    -0.0030     4.5160 h1         1 KIA       0.051033
     16 H7B          2.5600    -0.8860     3.6750 h1         1 KIA       0.051033
     17 H3           1.4020    -0.0050    -2.2110 ha         1 KIA       0.164000
     18 H8           2.5580     0.8840    -3.6750 h1         1 KIA       0.051033
     19 H8A          3.8410     0.0020    -4.5160 h1         1 KIA       0.051033
     20 H8B          2.5610    -0.8860    -3.6770 h1         1 KIA       0.051033
@<TRIPOS>BOND
     1     2     1 2
     2     9     2 1
     3     2     3 1
     4     4     3 2
     5     3    13 1
     6     7     4 1
     7     4     5 1
     8     5     6 1
     9     6    14 1
    10     6    15 1
    11     6    16 1
    12    10     7 1
    13     8     7 2
    14    10     9 2
    15     9    17 1
    16    11    10 1
    17    12    11 1
    18    12    18 1
    19    12    19 1
    20    12    20 1
@<TRIPOS>SUBSTRUCTURE
     1 KIA         1 TEMP              0 ****  ****    0 ROOT
