@<TRIPOS>MOLECULE
KIB
   22    22     1     0     0
SMALL
bcc


@<TRIPOS>ATOM
      1 O1          0.0600    0.0670   -0.1280 oh        1 KIB     -0.475100
      2 C1          1.4340    0.0760   -0.0650 ca        1 KIB      0.049100
      3 C6          2.1540    0.1550    1.1430 ca        1 KIB      0.131100
      4 O3          1.3650    0.2150    2.2790 os        1 KIB     -0.320400
      5 C7          2.0550    0.1920    3.5230 c3        1 KIB      0.115700
      6 C5          3.5520    0.1720    1.1510 ca        1 KIB     -0.258000
      7 C2          2.1450    0.0170   -1.2870 ca        1 KIB      0.131100
      8 O4          1.3620   -0.0600   -2.4180 os        1 KIB     -0.320400
      9 C8          2.0600   -0.1050   -3.6580 c3        1 KIB      0.115700
     10 C3          3.5420    0.0360   -1.2960 ca        1 KIB     -0.258000
     11 C4          4.2270    0.1130   -0.0740 ca        1 KIB      0.157100
     12 O2          5.6020    0.1270   -0.1550 oh        1 KIB     -0.495100
     13 HO1        -0.2750    0.0360    0.7810 ho        1 KIB      0.428000
     14 H7          1.2270    0.2000    4.2770 h1        1 KIB      0.046867
     15 H7A         2.6680   -0.7370    3.6180 h1        1 KIB      0.046867
     16 H7B         2.6960    1.1000    3.6310 h1        1 KIB      0.046867
     17 H5          4.1140    0.2330    2.0910 ha        1 KIB      0.150500
     18 H8          2.7050   -1.0150   -3.7160 h1        1 KIB      0.046867
     19 H8A         1.2350   -0.1560   -4.4130 h1        1 KIB      0.046867
     20 H8B         2.6710    0.8190   -3.8020 h1        1 KIB      0.046867
     21 H3          4.1170   -0.0080   -2.2300 ha        1 KIB      0.150500
     22 HO2         5.9520    0.1870    0.7450 ho        1 KIB      0.419000
@<TRIPOS>BOND
     1    1    2 1   
     2    1   13 1   
     3    2    3 ar  
     4    2    7 ar  
     5    3    4 1   
     6    3    6 ar  
     7    4    5 1   
     8    5   14 1   
     9    5   15 1   
    10    5   16 1   
    11    6   11 ar  
    12    6   17 1   
    13    7    8 1   
    14    7   10 ar  
    15    8    9 1   
    16    9   18 1   
    17    9   19 1   
    18    9   20 1   
    19   10   11 ar  
    20   10   21 1   
    21   11   12 1   
    22   12   22 1   
@<TRIPOS>SUBSTRUCTURE
     1 KIB         1 TEMP              0 ****  ****    0 ROOT
