@<TRIPOS>MOLECULE
molecule
   22    22     1     0     0
SMALL
bcc


@<TRIPOS>ATOM
      1 O1           0.0000     0.0000     0.0000 oh         1 KIB      -0.489100
      2 C1           1.3620     0.0000     0.0000 ca         1 KIB       0.034100
      3 C6           2.0580     0.0000     1.2030 ca         1 KIB       0.165100
      4 O3           1.3790    -0.0000     2.3810 os         1 KIB      -0.310900
      5 C7           2.1580    -0.0000     3.5790 c3         1 KIB       0.126700
      6 C5           3.4440    -0.0010     1.2010 ca         1 KIB      -0.276000
      7 C2           2.0570    -0.0070    -1.2030 ca         1 KIB       0.165100
      8 O4           1.3790    -0.0120    -2.3810 os         1 KIB      -0.310900
      9 C8           2.1580    -0.0180    -3.5790 c3         1 KIB       0.126700
     10 C3           3.4440    -0.0070    -1.2010 ca         1 KIB      -0.276000
     11 C4           4.1370    -0.0010     0.0000 ca         1 KIB       0.173100
     12 O2           5.4960    -0.0010     0.0000 oh         1 KIB      -0.521100
     13 HO1         -0.3140     0.8890    -0.0020 ho         1 KIB       0.412000
     14 H7           2.7820     0.8850     3.6040 h1         1 KIB       0.044033
     15 H7A          1.4990    -0.0010     4.4380 h1         1 KIB       0.044033
     16 H7B          2.7840    -0.8840     3.6030 h1         1 KIB       0.044033
     17 H5           3.9860     0.0010     2.1390 ha         1 KIB       0.149000
     18 H8           1.4990    -0.0230    -4.4380 h1         1 KIB       0.044033
     19 H8A          2.7830    -0.9020    -3.5990 h1         1 KIB       0.044033
     20 H8B          2.7820     0.8670    -3.6080 h1         1 KIB       0.044033
     21 H3           3.9860    -0.0100    -2.1390 ha         1 KIB       0.149000
     22 HO2          5.8100     0.8880    -0.0020 ho         1 KIB       0.422000
@<TRIPOS>BOND
     1     2     1 1
     2     1    13 1
     3     3     2 ar
     4     2     7 ar
     5     4     3 1
     6     6     3 ar
     7     4     5 1
     8     5    14 1
     9     5    15 1
    10     5    16 1
    11     6    11 ar
    12     6    17 1
    13    10     7 ar
    14     7     8 1
    15     8     9 1
    16     9    18 1
    17     9    19 1
    18     9    20 1
    19    11    10 ar
    20    10    21 1
    21    11    12 1
    22    12    22 1
@<TRIPOS>SUBSTRUCTURE
     1 KIB         1 TEMP              0 ****  ****    0 ROOT
