@<TRIPOS>MOLECULE
KIF
   28    29     1     0     0
SMALL
bcc


@<TRIPOS>ATOM
      1 C4           0.0000     0.0000     0.0000 c3         1 KIF       0.160100
      2 O4          -0.4770     1.1330     0.7280 oh         1 KIF      -0.575800
      3 C3           1.5280     0.0000     0.0000 c3         1 KIF       0.158100
      4 O3           2.0010    -1.1650    -0.6770 oh         1 KIF      -0.575800
      5 C2           2.0610     0.0000     1.4360 c3         1 KIF       0.145100
      6 O2           3.4870     0.0750     1.4180 oh         1 KIF      -0.577800
      7 C1           1.6200    -1.2940     2.1240 c3         1 KIF       0.073100
      8 N9           1.8840    -1.2410     3.5620 ns         1 KIF      -0.207900
      9 C8           0.7200    -1.4830     4.2000 c          1 KIF       0.540500
     10 O8           0.5760    -1.5660     5.4020 o          1 KIF      -0.611500
     11 C7          -0.3630    -1.6300     3.1820 c          1 KIF       0.561500
     12 O7          -1.5220    -1.9040     3.4140 o          1 KIF      -0.600500
     13 N            0.1610    -1.4180     1.9560 n          1 KIF      -0.153800
     14 C5          -0.5150    -1.2870     0.6620 c3         1 KIF       0.050700
     15 C6          -0.1880    -2.4920    -0.2210 c3         1 KIF       0.181400
     16 O6          -0.7990    -3.6630     0.3250 oh         1 KIF      -0.580800
     17 H4          -0.3580     0.0460    -1.0210 h1         1 KIF       0.014700
     18 HO4         -1.0560     1.6370     0.1800 ho         1 KIF       0.399000
     19 H3           1.8840     0.8860    -0.5120 h1         1 KIF       0.011700
     20 HO3          2.5160    -0.9080    -1.4240 ho         1 KIF       0.396000
     21 H2           1.6550     0.8500     1.9720 h1         1 KIF       0.036700
     22 HO2          3.7600     0.9380     1.6820 ho         1 KIF       0.395000
     23 H1           2.1230    -2.1450     1.6810 h2         1 KIF       0.058700
     24 H9           2.7690    -1.0610     3.9950 hn         1 KIF       0.212500
     25 H5          -1.5850    -1.2170     0.8140 h1         1 KIF       0.070700
     26 H61          0.8860    -2.6310    -0.2600 h1         1 KIF       0.013200
     27 H62         -0.5660    -2.3210    -1.2220 h1         1 KIF       0.013200
     28 HO6         -0.7040    -4.3790    -0.2800 ho         1 KIF       0.392000
@<TRIPOS>BOND
     1     1     2 1   
     2     1     3 1   
     3     1    14 1   
     4     1    17 1   
     5     2    18 1   
     6     3     4 1   
     7     3     5 1   
     8     3    19 1   
     9     4    20 1   
    10     5     6 1   
    11     5     7 1   
    12     5    21 1   
    13     6    22 1   
    14     7     8 1   
    15     7    13 1   
    16     7    23 1   
    17     8     9 1   
    18     8    24 1   
    19     9    10 2   
    20     9    11 1   
    21    11    12 2   
    22    11    13 1   
    23    13    14 1   
    24    14    15 1   
    25    14    25 1   
    26    15    16 1   
    27    15    26 1   
    28    15    27 1   
    29    16    28 1   
@<TRIPOS>SUBSTRUCTURE
     1 KIF         1 TEMP              0 ****  ****    0 ROOT
