@<TRIPOS>MOLECULE
KIJ
   29    30     1     0     0
SMALL
bcc


@<TRIPOS>ATOM
      1 OAD          0.0000     0.0000     0.0000 oh         1 KIJ      -0.490100
      2 CAT          1.3580     0.0000     0.0000 ca         1 KIJ       0.036100
      3 CAP          2.0540     0.0000     1.2060 ca         1 KIJ       0.084100
      4 OAC          1.3720    -0.0010     2.3830 oh         1 KIJ      -0.505100
      5 CAJ          3.4360     0.0000     1.2090 ca         1 KIJ      -0.123000
      6 CAQ          4.1350    -0.0010    -0.0000 ca         1 KIJ      -0.053600
      7 CAN          5.6110    -0.0010    -0.0000 c          1 KIJ       0.970200
      8 OAB          6.2840    -0.0020     1.1660 o          1 KIJ      -0.877800
      9 OAA          6.2180    -0.0000    -1.0530 o          1 KIJ      -0.877800
     10 CAL          3.4360     0.0010    -1.2110 ca         1 KIJ      -0.175000
     11 CAS          2.0530    -0.0050    -1.2070 ca         1 KIJ       0.076100
     12 OAM          1.3710    -0.0090    -2.3840 os         1 KIJ      -0.226200
     13 CAO          2.0900    -0.0210    -3.5370 ca         1 KIJ       0.115100
     14 CAK          2.4510    -1.2270    -4.1190 ca         1 KIJ      -0.026000
     15 CAH          2.4570     1.1740    -4.1380 ca         1 KIJ      -0.058000
     16 CAG          3.1870     1.1600    -5.3120 ca         1 KIJ      -0.107000
     17 CAI          3.5500    -0.0450    -5.8860 ca         1 KIJ      -0.026000
     18 CAR          3.1800    -1.2360    -5.2920 ca         1 KIJ      -0.437200
     19 NAU          3.5660    -2.5230    -5.9130 no         1 KIJ       1.054200
     20 OAF          3.2410    -3.5740    -5.3900 o          1 KIJ      -0.459000
     21 OAE          4.2090    -2.5310    -6.9480 o          1 KIJ      -0.459000
     22 H1          -0.3140     0.8880     0.0420 ho         1 KIJ       0.387000
     23 H2           1.4380    -0.8520     2.7830 ho         1 KIJ       0.397000
     24 H3           3.9760     0.0000     2.1480 ha         1 KIJ       0.144000
     25 H5           3.9760    -0.0010    -2.1500 ha         1 KIJ       0.139000
     26 H6           2.1620    -2.1620    -3.6540 ha         1 KIJ       0.145000
     27 H7           2.1730     2.1180    -3.6880 ha         1 KIJ       0.118000
     28 H8           3.4760     2.0930    -5.7800 ha         1 KIJ       0.110000
     29 H9           4.1220    -0.0540    -6.8060 ha         1 KIJ       0.126000
@<TRIPOS>BOND
     1     1     2 1   
     2     1    22 1   
     3     2     3 ar  
     4     2    11 ar  
     5     3     4 1   
     6     3     5 ar  
     7     4    23 1   
     8     5     6 ar  
     9     5    24 1   
    10     6     7 1   
    11     6    10 ar  
    12     7     8 1   
    13     7     9 1   
    14    10    11 ar  
    15    10    25 1   
    16    11    12 1   
    17    12    13 1   
    18    13    14 ar  
    19    13    15 ar  
    20    14    18 ar  
    21    14    26 1   
    22    15    16 ar  
    23    15    27 1   
    24    16    17 ar  
    25    16    28 1   
    26    17    18 ar  
    27    17    29 1   
    28    18    19 1   
    29    19    20 1   
    30    19    21 1   
@<TRIPOS>SUBSTRUCTURE
     1 KIJ         1 TEMP              0 ****  ****    0 ROOT
