@<TRIPOS>MOLECULE
molecule
   18    17     1     0     0
SMALL
bcc


@<TRIPOS>ATOM
      1 C5           0.0000     0.0000     0.0000 c2         1 KIK      -0.038000
      2 N1           4.0620     0.3590     2.6040 nz         1 KIK      -0.796600
      3 C4           1.3340     0.0000     0.0000 ce         1 KIK      -0.312200
      4 C3           2.0650     0.0000     1.2670 c          1 KIK       0.559300
      5 O3           1.4590     0.0020     2.3180 o          1 KIK      -0.515100
      6 C2           3.5730    -0.0000     1.2670 c3         1 KIK       0.007500
      7 C1           4.0820    -1.3940     0.8950 c3         1 KIK       0.125400
      8 O1           5.5060    -1.3660     0.7810 oh         1 KIK      -0.623800
      9 H1          -0.5420     0.0000    -0.9380 ha         1 KIK       0.151500
     10 H2          -0.5420     0.0000     0.9380 ha         1 KIK       0.151500
     11 H6           1.8760     0.0000    -0.9380 ha         1 KIK       0.153000
     12 H7           3.9340     0.7210     0.5440 hx         1 KIK       0.141700
     13 H8           3.7950    -2.1010     1.6640 h1         1 KIK       0.072700
     14 H9           3.6500    -1.6960    -0.0520 h1         1 KIK       0.072700
     15 H10          5.8040    -2.1550     0.3600 ho         1 KIK       0.455000
     16 H3           5.0390     0.5690     2.5570 hn         1 KIK       0.465133
     17 H12          3.9150    -0.4070     3.2300 hn         1 KIK       0.465133
     18 H4           3.5640     1.1620     2.9370 hn         1 KIK       0.465133
@<TRIPOS>BOND
     1     3     1 2
     2     3     4 1
     3     5     4 2
     4     4     6 1
     5     6     2 1
     6     6     7 1
     7     7     8 1
     8     1     9 1
     9     1    10 1
    10     2    16 1
    11     2    18 1
    12     3    11 1
    13     6    12 1
    14     7    13 1
    15     7    14 1
    16     8    15 1
    17    17     2 1
@<TRIPOS>SUBSTRUCTURE
     1 KIK         1 TEMP              0 ****  ****    0 ROOT
