@<TRIPOS>MOLECULE
KIK
   18    17     1     0     0
SMALL
bcc


@<TRIPOS>ATOM
      1 C5           0.0000     0.0000     0.0000 c2         1 KIK       0.059000
      2 N1           4.0620     0.3590     2.6040 nz         1 KIK       0.097400
      3 C4           1.3340     0.0000     0.0000 ce         1 KIK      -0.308200
      4 C3           2.0650     0.0000     1.2670 c          1 KIK       0.622300
      5 O3           1.4590     0.0020     2.3180 o          1 KIK      -0.550100
      6 C2           3.5730    -0.0000     1.2670 c3         1 KIK      -0.185500
      7 C1           4.0820    -1.3940     0.8950 c3         1 KIK       0.227400
      8 O1           5.5060    -1.3660     0.7810 oh         1 KIK      -0.612800
      9 H1          -0.5420    -0.0000     0.9380 ha         1 KIK       0.103000
     10 H2          -0.5420     0.0000    -0.9380 ha         1 KIK       0.103000
     11 H6           1.8760     0.0000    -0.9380 ha         1 KIK       0.132000
     12 H7           3.9340     0.7210     0.5440 hx         1 KIK       0.113700
     13 H8           3.6500    -1.6950    -0.0520 h1         1 KIK       0.030200
     14 H9           3.7950    -2.1010     1.6640 h1         1 KIK       0.030200
     15 H10          5.8040    -2.1550     0.3600 ho         1 KIK       0.447000
     16 H3           5.0390     0.5690     2.5570 hn         1 KIK       0.230133
     17 H12          3.9150    -0.4070     3.2300 hn         1 KIK       0.230133
     18 H4           3.5640     1.1610     2.9370 hn         1 KIK       0.230133
@<TRIPOS>BOND
     1     1     3 2   
     2     1     9 1   
     3     1    10 1   
     4     2     6 1   
     5     2    16 1   
     6     2    17 1   
     7     2    18 1   
     8     3     4 1   
     9     3    11 1   
    10     4     5 2   
    11     4     6 1   
    12     6     7 1   
    13     6    12 1   
    14     7     8 1   
    15     7    13 1   
    16     7    14 1   
    17     8    15 1   
@<TRIPOS>SUBSTRUCTURE
     1 KIK         1 TEMP              0 ****  ****    0 ROOT
