@<TRIPOS>MOLECULE
KIM
   55    58     1     0     0
SMALL
bcc


@<TRIPOS>ATOM
      1 N1           0.0000     0.0000     0.0000 nu         1 KIM      -0.291300
      2 N3          -2.0130     0.6600    -0.9870 nb         1 KIM      -0.683000
      3 C4           1.4000     0.0000     0.0000 ca         1 KIM       0.073600
      4 C5          -0.6930     0.7570    -0.9290 ca         1 KIM       0.706900
      5 C6          -0.6480     2.3030    -2.6380 ca         1 KIM       0.486200
      6 C7          -2.0240     2.2310    -2.7330 ca         1 KIM      -0.404600
      7 C8          -2.7070     1.3740    -1.8670 ca         1 KIM       0.570200
      8 C10         -4.6810     0.2520    -2.6810 ca         1 KIM       0.114600
      9 C13         -5.8810    -1.7490    -4.1780 ca         1 KIM      -0.303900
     10 C17         -3.8860    -0.6140    -3.4090 ca         1 KIM      -0.218000
     11 C21          4.1750     0.0010    -0.0010 ca         1 KIM       0.031100
     12 C2           3.4800     0.0010     1.2020 ca         1 KIM       0.181100
     13 C3           2.0940     0.0000     1.2020 ca         1 KIM      -0.258000
     14 N2          -0.0200     1.5630    -1.7370 nb         1 KIM      -0.679000
     15 N4          -4.0880     1.2690    -1.9260 nh         1 KIM      -0.346700
     16 C9          -4.9260     2.2240    -1.1980 c3         1 KIM       0.209100
     17 C11         -6.0710     0.1220    -2.6980 ca         1 KIM      -0.212000
     18 C12         -6.6660    -0.8590    -3.4320 ca         1 KIM       0.029000
     19 C14         -6.1840    -2.8460    -5.0210 cc         1 KIM       0.408900
     20 N5          -5.0710    -3.3410    -5.4770 nd         1 KIM      -0.656100
     21 N6          -3.9860    -2.6170    -4.9690 na         1 KIM       0.411900
     22 C16         -4.4790    -1.6250    -4.1600 ca         1 KIM      -0.137200
     23 C18          2.0930    -0.0050    -1.2030 ca         1 KIM      -0.258000
     24 C19          3.4790    -0.0040    -1.2040 ca         1 KIM       0.181100
     25 O2           4.1580    -0.0030    -2.3820 os         1 KIM      -0.290900
     26 O3           5.5360     0.0040    -0.0020 os         1 KIM      -0.307900
     27 HN1         -0.5000    -0.5660     0.6570 hn         1 KIM       0.296800
     28 H6          -0.0880     2.9580    -3.2950 h4         1 KIM      -0.014900
     29 H7          -2.5610     2.8260    -3.4610 ha         1 KIM       0.134000
     30 H15         -8.1330    -2.5800    -5.8350 hc         1 KIM       0.011367
     31 H15A        -8.0670    -3.6340    -4.4150 hc         1 KIM       0.011367
     32 H15B        -7.4940    -4.2220    -5.9820 hc         1 KIM       0.011367
     33 H17         -2.8080    -0.5780    -3.3050 ha         1 KIM       0.117000
     34 H20          4.0320    -0.1360    -4.4360 h1         1 KIM      -0.001633
     35 H20A         2.6670    -0.8250    -3.5450 h1         1 KIM      -0.001633
     36 H20B         2.8470     0.9310    -3.6700 h1         1 KIM      -0.001633
     37 H22          5.5730    -1.9890    -0.5290 h1         1 KIM      -0.010300
     38 H22A         6.3340    -1.5990     1.0200 h1         1 KIM      -0.010300
     39 H22B         7.1480    -1.1830    -0.4950 h1         1 KIM      -0.010300
     40 H1           2.7550     0.8890     3.6030 h1         1 KIM      -0.001633
     41 H1A          2.7580    -0.8800     3.5940 h1         1 KIM      -0.001633
     42 H1B          4.0340     0.0020     4.4430 h1         1 KIM      -0.001633
     43 H3           1.5520    -0.0000     2.1400 ha         1 KIM       0.137000
     44 H9          -5.5110     1.6970    -0.4540 h1         1 KIM       0.009033
     45 H9A         -5.5910     2.7240    -1.8920 h1         1 KIM       0.009033
     46 H9B         -4.2970     2.9570    -0.7080 h1         1 KIM       0.009033
     47 H11         -6.6820     0.8070    -2.1230 ha         1 KIM       0.117000
     48 H12         -7.7450    -0.9520    -3.4390 ha         1 KIM       0.098000
     49 HN6         -3.0200    -2.7910    -5.1640 hn         1 KIM       0.151700
     50 H18          1.5510    -0.0080    -2.1410 ha         1 KIM       0.137000
     51 O1           4.1600     0.0060     2.3800 os         1 KIM      -0.290900
     52 C15         -7.5670    -3.3560    -5.3350 c3         1 KIM       0.011600
     53 C20          3.3790    -0.0090    -3.5810 c3         1 KIM       0.239700
     54 C22          6.1870    -1.2690    -0.0010 c3         1 KIM       0.249700
     55 C1           3.3810     0.0050     3.5790 c3         1 KIM       0.239700
@<TRIPOS>BOND
     1     1     3 1   
     2     1     4 1   
     3     1    27 1   
     4     2     4 ar  
     5     2     7 ar  
     6     3    13 ar  
     7     3    23 ar  
     8     4    14 ar  
     9     5     6 ar  
    10     5    14 ar  
    11     5    28 1   
    12     6     7 ar  
    13     6    29 1   
    14     7    15 1   
    15     8    10 ar  
    16     8    15 1   
    17     8    17 ar  
    18     9    18 ar  
    19     9    19 1   
    20     9    22 ar  
    21    10    22 ar  
    22    10    33 1   
    23    11    12 ar  
    24    11    24 ar  
    25    11    26 1   
    26    12    13 ar  
    27    12    51 1   
    28    13    43 1   
    29    15    16 1   
    30    16    44 1   
    31    16    45 1   
    32    16    46 1   
    33    17    18 ar  
    34    17    47 1   
    35    18    48 1   
    36    19    20 2   
    37    19    52 1   
    38    20    21 1   
    39    21    22 1   
    40    21    49 1   
    41    23    24 ar  
    42    23    50 1   
    43    24    25 1   
    44    25    53 1   
    45    26    54 1   
    46    30    52 1   
    47    31    52 1   
    48    32    52 1   
    49    34    53 1   
    50    35    53 1   
    51    36    53 1   
    52    37    54 1   
    53    38    54 1   
    54    39    54 1   
    55    40    55 1   
    56    41    55 1   
    57    42    55 1   
    58    51    55 1   
@<TRIPOS>SUBSTRUCTURE
     1 KIM         1 TEMP              0 ****  ****    0 ROOT
