@<TRIPOS>MOLECULE
molecule
   41    43     1     0     0
SMALL
bcc


@<TRIPOS>ATOM
      1 C11          0.0000     0.0000     0.0000 ca         1 KIN      -0.102000
      2 C13          1.3940     0.0000     0.0000 ca         1 KIN      -0.112000
      3 C21         -3.6410    -0.0020     5.8460 ca         1 KIN       0.072600
      4 C22         -3.7060    -0.0020     7.2290 ca         1 KIN      -0.150000
      5 C24         -4.9530    -0.0050     7.8540 ca         1 KIN      -0.126500
      6 C27         -6.0350    -0.0090     5.6940 ca         1 KIN      -0.126500
      7 C32         -8.2960    -0.8790     7.2100 ca         1 KIN       0.150100
      8 C33         -7.9450    -2.1810     6.9260 ca         1 KIN      -0.273300
      9 C35         -8.9440    -3.0110     6.4430 ca         1 KIN       0.413200
     10 F01          4.1300     0.0030    -0.0440 f          1 KIN      -0.234967
     11 C02          3.5840     0.0020     1.2070 c3         1 KIN       0.702200
     12 F03          4.1290     1.0860     1.8350 f          1 KIN      -0.234967
     13 F04          4.1100    -1.0890     1.8360 f          1 KIN      -0.234967
     14 C05          2.0920     0.0000     1.2080 ca         1 KIN      -0.153300
     15 C06          1.3940     0.0010     2.4160 ca         1 KIN      -0.137000
     16 C08         -0.0010     0.0020     2.4150 ca         1 KIN       0.087600
     17 C09         -0.6980     0.0010     1.2080 ca         1 KIN      -0.138000
     18 N15         -0.6990     0.0010     3.6240 ns         1 KIN      -0.500100
     19 C17         -2.0990    -0.0010     3.8360 c          1 KIN       0.814100
     20 O18         -2.9410    -0.0030     2.9430 o          1 KIN      -0.592100
     21 N19         -2.3760    -0.0010     5.2120 ns         1 KIN      -0.500100
     22 C26         -6.1180    -0.0080     7.0860 ca         1 KIN       0.086100
     23 C29         -4.7880    -0.0050     5.0700 ca         1 KIN      -0.150000
     24 O31         -7.3350    -0.0090     7.6960 os         1 KIN      -0.257200
     25 N37        -10.2230    -2.6190     6.2400 nb         1 KIN      -0.664000
     26 C38        -10.5090    -1.3310     6.5360 ca         1 KIN       0.413200
     27 C40         -9.5840    -0.4230     7.0230 ca         1 KIN      -0.273300
     28 H11         -0.5420    -0.0000    -0.9380 ha         1 KIN       0.146000
     29 H13          1.9360    -0.0010    -0.9380 ha         1 KIN       0.152000
     30 H22         -2.7980     0.0000     7.8200 ha         1 KIN       0.159000
     31 H24         -5.0170    -0.0050     8.9350 ha         1 KIN       0.150000
     32 H27         -6.9390    -0.0110     5.0970 ha         1 KIN       0.150000
     33 H33         -6.9340    -2.5400     7.0730 ha         1 KIN       0.159000
     34 H35         -8.6850    -4.0380     6.2150 h4         1 KIN       0.022100
     35 H06          1.9360     0.0010     3.3550 ha         1 KIN       0.142000
     36 H09         -1.7810     0.0010     1.2080 ha         1 KIN       0.180000
     37 HN15        -0.1350     0.0020     4.4510 hn         1 KIN       0.311500
     38 HN19        -1.5810    -0.0010     5.8200 hn         1 KIN       0.311500
     39 H29         -4.7170    -0.0060     3.9890 ha         1 KIN       0.159000
     40 H38        -11.5250    -0.9890     6.3830 h4         1 KIN       0.022100
     41 H40         -9.8600     0.6010     7.2470 ha         1 KIN       0.159000
@<TRIPOS>BOND
     1     1     2 ar
     2     1    17 ar
     3     1    28 1
     4     2    14 ar
     5     2    29 1
     6     3     4 ar
     7     3    23 ar
     8     3    21 1
     9     4     5 ar
    10     4    30 1
    11     5    22 ar
    12     5    31 1
    13     6    22 ar
    14     6    23 ar
    15     6    32 1
    16     7     8 ar
    17     7    27 ar
    18     7    24 1
    19     8     9 ar
    20     8    33 1
    21     9    25 ar
    22     9    34 1
    23    10    11 1
    24    11    13 1
    25    11    12 1
    26    11    14 1
    27    14    15 ar
    28    15    16 ar
    29    15    35 1
    30    16    18 1
    31    16    17 ar
    32    17    36 1
    33    18    19 1
    34    18    37 1
    35    19    20 2
    36    19    21 1
    37    21    38 1
    38    22    24 1
    39    23    39 1
    40    25    26 ar
    41    26    27 ar
    42    26    40 1
    43    27    41 1
@<TRIPOS>SUBSTRUCTURE
     1 KIN         1 TEMP              0 ****  ****    0 ROOT
