@<TRIPOS>MOLECULE
KIQ
   49    52     1     0     0
SMALL
bcc


@<TRIPOS>ATOM
      1 C4           0.0000     0.0000     0.0000 ce         1 KIQ      -0.231400
      2 C5          -0.6850     0.0080    -1.3070 c          1 KIQ       0.628300
      3 C8          -0.7590    -2.5480    -1.2780 c3         1 KIQ       0.063000
      4 C15          0.0470    -4.1140    -4.5850 cc         1 KIQ       0.122800
      5 C20          1.3400     0.0000     0.0000 c2         1 KIQ      -0.064200
      6 C21          2.1510     0.0000     1.2620 c3         1 KIQ       0.025800
      7 C22          1.3270     0.3160     2.5330 c3         1 KIQ       0.009600
      8 C24          2.5730    -1.2660     4.0470 ca         1 KIQ      -0.101000
      9 C30          2.4900     1.0760     4.6380 ca         1 KIQ       0.106900
     10 C29          3.2500     0.8150     5.7770 ca         1 KIQ      -0.118000
     11 C27          3.6710    -0.4870     6.0520 ca         1 KIQ       0.170900
     12 F28          4.4010    -0.7360     7.1480 f          1 KIQ      -0.081900
     13 C25          3.3330    -1.5260     5.1870 ca         1 KIQ       0.093900
     14 F26          3.7360    -2.7760     5.4520 f          1 KIQ      -0.087900
     15 C23          2.1550     0.0340     3.7780 ca         1 KIQ      -0.202300
     16 C           -0.0330    -0.4280     2.4970 c3         1 KIQ      -0.072500
     17 N           -0.8290    -0.1470     3.6950 nz         1 KIQ      -0.013600
     18 C3          -0.8360    -0.0260     1.2440 c3         1 KIQ       0.051800
     19 O           -0.9430     1.1010    -1.8130 o          1 KIQ      -0.566100
     20 N7          -0.9840    -1.2230    -1.8870 n          1 KIQ      -0.207800
     21 C12         -1.6560    -1.2480    -3.1960 c3         1 KIQ       0.045700
     22 C11         -1.0830    -2.3220    -4.0500 cc         1 KIQ       0.210800
     23 N13         -1.2570    -2.5360    -5.3380 nd         1 KIQ      -0.305000
     24 N14         -0.5400    -3.6700    -5.6750 nd         1 KIQ      -0.241000
     25 F19          1.1210    -5.9730    -5.6400 f          1 KIQ      -0.200633
     26 F18          2.1900    -5.0110    -4.0160 f          1 KIQ      -0.200633
     27 F            0.4460    -6.2370    -3.5900 f          1 KIQ      -0.200633
     28 N10         -0.2690    -3.3010    -3.5490 na         1 KIQ       0.137300
     29 C9           0.1630    -3.3770    -2.1700 c3         1 KIQ      -0.063700
     30 H81         -1.7130    -3.0570    -1.2170 h1         1 KIQ       0.032700
     31 H82         -0.2620    -2.4010    -0.3270 h1         1 KIQ       0.032700
     32 H20          1.8590     0.0020    -0.9510 ha         1 KIQ       0.135000
     33 H211         2.6040    -0.9770     1.3800 hc         1 KIQ       0.051200
     34 H212         2.9350     0.7420     1.1680 hc         1 KIQ       0.051200
     35 H22          1.1110     1.3770     2.5190 hc         1 KIQ       0.060700
     36 H24          2.3930    -2.0530     3.3240 ha         1 KIQ       0.134000
     37 H29          3.0360     1.6760     6.3980 ha         1 KIQ       0.157000
     38 H            0.1620    -1.4920     2.4500 hx         1 KIQ       0.085700
     39 HN1         -1.7770     0.1170     3.5130 hn         1 KIQ       0.258133
     40 HN2         -0.6650    -1.1340     3.6970 hn         1 KIQ       0.258133
     41 H31         -1.6430    -0.7350     1.1060 hc         1 KIQ       0.040200
     42 H32         -1.2550     0.9610     1.4010 hc         1 KIQ       0.040200
     43 H121        -2.7030    -1.4750    -3.0310 h1         1 KIQ       0.062700
     44 H122        -1.4730    -0.2990    -3.6850 h1         1 KIQ       0.062700
     45 H91          0.1390    -4.4100    -1.8450 h1         1 KIQ       0.050700
     46 H92          1.1740    -2.9950    -2.0920 h1         1 KIQ       0.050700
     47 F31          2.0900     2.3290     4.3810 f          1 KIQ      -0.103900
     48 HN3         -0.3470     0.3680     4.4050 hn         1 KIQ       0.258133
     49 C16          0.9220    -5.2930    -4.4640 c3         1 KIQ       0.572600
@<TRIPOS>BOND
     1     1     2 1   
     2     1     5 2   
     3     1    18 1   
     4     2    19 2   
     5     2    20 1   
     6     3    20 1   
     7     3    29 1   
     8     3    30 1   
     9     3    31 1   
    10     4    24 2   
    11     4    28 1   
    12     4    49 1   
    13     5     6 1   
    14     5    32 1   
    15     6     7 1   
    16     6    33 1   
    17     6    34 1   
    18     7    15 1   
    19     7    16 1   
    20     7    35 1   
    21     8    13 ar  
    22     8    15 ar  
    23     8    36 1   
    24     9    10 ar  
    25     9    15 ar  
    26     9    47 1   
    27    10    11 ar  
    28    10    37 1   
    29    11    12 1   
    30    11    13 ar  
    31    13    14 1   
    32    16    17 1   
    33    16    18 1   
    34    16    38 1   
    35    17    39 1   
    36    17    40 1   
    37    17    48 1   
    38    18    41 1   
    39    18    42 1   
    40    20    21 1   
    41    21    22 1   
    42    21    43 1   
    43    21    44 1   
    44    22    23 2   
    45    22    28 1   
    46    23    24 1   
    47    25    49 1   
    48    26    49 1   
    49    27    49 1   
    50    28    29 1   
    51    29    45 1   
    52    29    46 1   
@<TRIPOS>SUBSTRUCTURE
     1 KIQ         1 TEMP              0 ****  ****    0 ROOT
