@<TRIPOS>MOLECULE
KIU
   32    33     1     0     0
SMALL
bcc


@<TRIPOS>ATOM
      1 OAA          0.0000     0.0000     0.0000 o          1 KIU      -0.907300
      2 CAP          1.2150     0.0000     0.0000 c          1 KIU       0.986200
      3 OAC          1.8880     0.0000     1.1670 o          1 KIU      -0.907300
      4 CAT          1.9540    -0.0050    -1.2790 ca         1 KIU      -0.115600
      5 CAJ          1.2570    -0.0110    -2.4890 ca         1 KIU      -0.162500
      6 CAM          3.3480     0.0000    -1.2800 ca         1 KIU      -0.044000
      7 CAU          4.0400    -0.0040    -2.4890 ca         1 KIU      -0.115600
      8 CAQ          5.5170     0.0030    -2.4970 c          1 KIU       0.986200
      9 OAD          6.1200    -0.0020    -3.5510 o          1 KIU      -0.907300
     10 OAB          6.1960     0.0120    -1.3330 o          1 KIU      -0.907300
     11 CAK          3.3340    -0.0140    -3.6950 ca         1 KIU      -0.162500
     12 CAS          1.9490    -0.0170    -3.6900 ca         1 KIU       0.040100
     13 OAO          1.2670    -0.0230    -4.8650 os         1 KIU      -0.321900
     14 CAN          2.0430    -0.0270    -6.0650 c3         1 KIU       0.246700
     15 CAR          1.1220    -0.0340    -7.2580 ca         1 KIU      -0.086300
     16 CAL          0.6980     1.1610    -7.8110 ca         1 KIU       0.013000
     17 CAH          0.7040    -1.2340    -7.8040 ca         1 KIU      -0.018000
     18 CAG         -0.1400    -1.2390    -8.8980 ca         1 KIU      -0.137000
     19 CAI         -0.5680    -0.0460    -9.4470 ca         1 KIU      -0.032000
     20 CAV         -0.1460     1.1540    -8.9060 ca         1 KIU      -0.467200
     21 NAW         -0.6000     2.4340    -9.4980 no         1 KIU       1.056200
     22 OAF         -0.2290     3.4910    -9.0200 o          1 KIU      -0.466000
     23 OAE         -1.3440     2.4290   -10.4620 o          1 KIU      -0.466000
     24 H2           0.1730    -0.0130    -2.4890 ha         1 KIU       0.114000
     25 H3           3.8890     0.0890    -0.3460 ha         1 KIU       0.158000
     26 H5           3.8710    -0.0180    -4.6360 ha         1 KIU       0.114000
     27 H6           2.6690    -0.9110    -6.0870 h1         1 KIU       0.015200
     28 H7           2.6660     0.8580    -6.0950 h1         1 KIU       0.015200
     29 H8           1.0290     2.1010    -7.3870 ha         1 KIU       0.142000
     30 H9           1.0400    -2.1700    -7.3740 ha         1 KIU       0.117000
     31 H10         -0.4690    -2.1800    -9.3240 ha         1 KIU       0.104000
     32 H11         -1.2300    -0.0500   -10.3040 ha         1 KIU       0.118000
@<TRIPOS>BOND
     1     1     2 1   
     2     2     3 1   
     3     2     4 1   
     4     4     5 ar  
     5     4     6 ar  
     6     5    12 ar  
     7     5    24 1   
     8     6     7 ar  
     9     6    25 1   
    10     7     8 1   
    11     7    11 ar  
    12     8     9 1   
    13     8    10 1   
    14    11    12 ar  
    15    11    26 1   
    16    12    13 1   
    17    13    14 1   
    18    14    15 1   
    19    14    27 1   
    20    14    28 1   
    21    15    16 ar  
    22    15    17 ar  
    23    16    20 ar  
    24    16    29 1   
    25    17    18 ar  
    26    17    30 1   
    27    18    19 ar  
    28    18    31 1   
    29    19    20 ar  
    30    19    32 1   
    31    20    21 1   
    32    21    22 1   
    33    21    23 1   
@<TRIPOS>SUBSTRUCTURE
     1 KIU         1 TEMP              0 ****  ****    0 ROOT
