@<TRIPOS>MOLECULE
molecule
   15    14     1     0     0
SMALL
bcc


@<TRIPOS>ATOM
      1 O1           0.0000     0.0000     0.0000 o          1 KIV      -0.816800
      2 C1           1.3460     0.0000     0.0000 c          1 KIV       0.804600
      3 O2           1.9510     0.0000     1.0510 o          1 KIV      -0.816800
      4 C2           2.0920    -0.0020    -1.2890 c          1 KIV       0.479100
      5 C3           3.5980    -0.0020    -1.2880 c3         1 KIV      -0.183700
      6 C4           4.1090    -0.7240    -2.5350 c3         1 KIV      -0.075600
      7 C5           4.1100     1.4390    -1.2880 c3         1 KIV      -0.075600
      8 O3           1.4890    -0.0020    -2.3350 o          1 KIV      -0.548100
      9 HC31         3.9590    -0.5130    -0.4030 hc         1 KIV       0.075700
     10 HC41         5.1900    -0.7840    -2.5010 hc         1 KIV       0.026033
     11 HC42         3.6930    -1.7240    -2.5700 hc         1 KIV       0.026033
     12 HC43         3.8060    -0.1760    -3.4190 hc         1 KIV       0.026033
     13 HC51         3.7730     1.9420    -0.3900 hc         1 KIV       0.026033
     14 HC52         3.7260     1.9580    -2.1580 hc         1 KIV       0.026033
     15 HC53         5.1930     1.4380    -1.3170 hc         1 KIV       0.026033
@<TRIPOS>BOND
     1     1     2 1
     2     2     3 1
     3     2     4 1
     4     4     5 1
     5     4     8 2
     6     5     6 1
     7     5     7 1
     8     5     9 1
     9     6    10 1
    10     6    11 1
    11     6    12 1
    12     7    13 1
    13     7    14 1
    14     7    15 1
@<TRIPOS>SUBSTRUCTURE
     1 KIV         1 TEMP              0 ****  ****    0 ROOT
