@<TRIPOS>MOLECULE
KIV
   15    14     1     0     0
SMALL
bcc


@<TRIPOS>ATOM
      1 O1          1.0890    1.2240    0.3140 o         1 KIV     -0.817300
      2 C1          1.4660    0.0410    0.0980 c         1 KIV      0.855600
      3 O2          1.4200   -0.9080    0.9250 o         1 KIV     -0.817300
      4 C2          2.0870   -0.2590   -1.2760 c         1 KIV      0.473100
      5 C3          3.5830   -0.0020   -1.3450 c3        1 KIV     -0.180700
      6 C4          4.2320   -0.6810   -2.5280 c3        1 KIV     -0.081100
      7 C5          3.8310    1.4920   -1.3670 c3        1 KIV     -0.081100
      8 O3          1.4580   -0.6790   -2.2530 o         1 KIV     -0.590100
      9 HC31        4.0170   -0.4260   -0.3940 hc        1 KIV      0.065700
     10 HC41        5.3220   -0.4420   -2.5690 hc        1 KIV      0.028867
     11 HC42        3.7520   -0.3430   -3.4780 hc        1 KIV      0.028867
     12 HC43        4.1080   -1.7880   -2.4520 hc        1 KIV      0.028867
     13 HC51        4.9120    1.7080   -1.1940 hc        1 KIV      0.028867
     14 HC52        3.5380    1.9220   -2.3560 hc        1 KIV      0.028867
     15 HC53        3.2200    1.9860   -0.5690 hc        1 KIV      0.028867
@<TRIPOS>BOND
     1    1    2 1   
     2    2    3 1   
     3    2    4 1   
     4    4    5 1   
     5    4    8 2   
     6    5    6 1   
     7    5    7 1   
     8    5    9 1   
     9    6   10 1   
    10    6   11 1   
    11    6   12 1   
    12    7   13 1   
    13    7   14 1   
    14    7   15 1   
@<TRIPOS>SUBSTRUCTURE
     1 KIV         1 TEMP              0 ****  ****    0 ROOT
