@<TRIPOS>MOLECULE
KIW
   33    34     1     0     0
SMALL
bcc


@<TRIPOS>ATOM
      1 OAA          0.0000     0.0000     0.0000 o          1 KIW      -0.910550
      2 CAP          1.3470     0.0000     0.0000 c          1 KIW       0.986700
      3 OAC          1.9540     0.0000     1.0530 o          1 KIW      -0.910550
      4 CAT          2.0860    -0.0000    -1.2800 ca         1 KIW      -0.114600
      5 CAJ          3.4830    -0.0060    -1.2790 ca         1 KIW      -0.163500
      6 CAM          1.3910     0.0000    -2.4870 ca         1 KIW      -0.052000
      7 CAU          2.0910     0.0000    -3.6910 ca         1 KIW      -0.114600
      8 CAQ          1.3580     0.0010    -4.9740 c          1 KIW       0.986700
      9 OAD          0.0110     0.0010    -4.9790 o          1 KIW      -0.910550
     10 OAB          1.9700     0.0020    -6.0230 o          1 KIW      -0.910550
     11 CAK          3.4870     0.0000    -3.6850 ca         1 KIW      -0.163500
     12 CAS          4.1780    -0.0050    -2.4810 ca         1 KIW      -0.029400
     13 NAO          5.5740    -0.0120    -2.4770 nu         1 KIW      -0.475600
     14 CAN          6.3100    -0.0110    -3.7450 c3         1 KIW       0.229100
     15 CAR          7.7910    -0.0170    -3.4660 ca         1 KIW      -0.095300
     16 CAL          8.4650    -1.2180    -3.3410 ca         1 KIW       0.005000
     17 CAH          8.4760     1.1760    -3.3410 ca         1 KIW      -0.025000
     18 CAG          9.8340     1.1700    -3.0850 ca         1 KIW      -0.135000
     19 CAI         10.5080    -0.0300    -2.9540 ca         1 KIW      -0.033000
     20 CAV          9.8240    -1.2240    -3.0850 ca         1 KIW      -0.465200
     21 NAW         10.5460    -2.5090    -2.9520 no         1 KIW       1.055200
     22 OAF          9.9430    -3.5610    -3.0670 o          1 KIW      -0.465000
     23 OAE         11.7430    -2.5140    -2.7260 o          1 KIW      -0.465000
     24 H2           4.0240    -0.0110    -0.3410 ha         1 KIW       0.107500
     25 H3           0.3090     0.0630    -2.4890 ha         1 KIW       0.156000
     26 H5           4.0330     0.0010    -4.6210 ha         1 KIW       0.107500
     27 H6           6.0730    -0.0330    -1.6100 hn         1 KIW       0.277800
     28 H7           6.0530     0.8760    -4.3110 h1         1 KIW       0.020700
     29 H8           6.0460    -0.8930    -4.3160 h1         1 KIW       0.020700
     30 H9           7.9360    -2.1530    -3.4810 ha         1 KIW       0.143000
     31 H10          7.9530     2.1170    -3.4670 ha         1 KIW       0.119000
     32 H11         10.3710     2.1060    -2.9880 ha         1 KIW       0.105000
     33 H12         11.5780    -0.0350    -2.7820 ha         1 KIW       0.119000
@<TRIPOS>BOND
     1     1     2 1   
     2     2     3 1   
     3     2     4 1   
     4     4     5 ar  
     5     4     6 ar  
     6     5    12 ar  
     7     5    24 1   
     8     6     7 ar  
     9     6    25 1   
    10     7     8 1   
    11     7    11 ar  
    12     8     9 1   
    13     8    10 1   
    14    11    12 ar  
    15    11    26 1   
    16    12    13 1   
    17    13    14 1   
    18    13    27 1   
    19    14    15 1   
    20    14    28 1   
    21    14    29 1   
    22    15    16 ar  
    23    15    17 ar  
    24    16    20 ar  
    25    16    30 1   
    26    17    18 ar  
    27    17    31 1   
    28    18    19 ar  
    29    18    32 1   
    30    19    20 ar  
    31    19    33 1   
    32    20    21 1   
    33    21    22 1   
    34    21    23 1   
@<TRIPOS>SUBSTRUCTURE
     1 KIW         1 TEMP              0 ****  ****    0 ROOT
