@<TRIPOS>MOLECULE
KJ2
   44    46     1     0     0
SMALL
bcc


@<TRIPOS>ATOM
      1 C1           0.0000     0.0000     0.0000 ca         1 KJ2       0.168100
      2 C2           1.3890     0.0000     0.0000 ca         1 KJ2      -0.107600
      3 C3          -0.6980    -0.0010     1.1990 ca         1 KJ2      -0.208000
      4 C4          -0.0110    -0.0050     2.4010 ca         1 KJ2       0.181100
      5 C5           1.3900     0.0000     2.4020 ca         1 KJ2      -0.063000
      6 C6           2.0840     0.0000     1.1910 ca         1 KJ2      -0.049000
      7 O7          -0.6930    -0.0050     3.5750 oh         1 KJ2      -0.478100
      8 O8          -0.6790    -0.0000    -1.1770 oh         1 KJ2      -0.495100
      9 Cl9          2.2530    -0.0010    -1.5050 cl         1 KJ2       0.010600
     10 C10          2.1290     0.0000     3.6800 cc         1 KJ2      -0.176300
     11 C11          2.0510    -0.9600     4.6790 cd         1 KJ2      -0.258300
     12 N12          3.4830     0.5660     5.3660 nc         1 KJ2      -0.650800
     13 C13          2.9200    -0.5620     5.7100 cd         1 KJ2       0.411200
     14 N14          3.0100     0.9490     4.1060 na         1 KJ2       0.466400
     15 C15          1.2140    -2.1830     4.6590 ca         1 KJ2       0.015000
     16 C16          0.2510    -2.3850     5.6460 ca         1 KJ2      -0.045000
     17 C17         -0.5270    -3.5240     5.6240 ca         1 KJ2      -0.172500
     18 C18          0.6090    -4.2720     3.6410 ca         1 KJ2      -0.172500
     19 C19          1.3870    -3.1330     3.6530 ca         1 KJ2      -0.045000
     20 C20         -0.3520    -4.4680     4.6220 ca         1 KJ2       0.098100
     21 O21         -1.1210    -5.5880     4.6040 os         1 KJ2      -0.278900
     22 C22         -0.7110    -6.3520     3.4690 c3         1 KJ2       0.192400
     23 C23         -1.5400    -7.6340     3.3890 c3         1 KJ2      -0.051400
     24 C24         -1.1030    -8.4530     2.1730 c3         1 KJ2      -0.049200
     25 N25         -1.8990    -9.6830     2.0970 nz         1 KJ2       0.090400
     26 H3          -1.7810    -0.0030     1.1950 ha         1 KJ2       0.130000
     27 H6           3.1670     0.0020     1.1860 ha         1 KJ2       0.122000
     28 H7          -1.2970     0.7190     3.5870 ho         1 KJ2       0.408000
     29 H8          -0.8480     0.8890    -1.4420 ho         1 KJ2       0.415000
     30 H13          3.0930    -1.0990     6.6350 h4         1 KJ2       0.008100
     31 H14          3.2750     1.7730     3.6040 hn         1 KJ2       0.152700
     32 H16          0.1140    -1.6490     6.4290 ha         1 KJ2       0.115000
     33 H17         -1.2770    -3.6820     6.3900 ha         1 KJ2       0.114000
     34 H18          0.7430    -5.0100     2.8590 ha         1 KJ2       0.114000
     35 H19          2.1370    -2.9800     2.8870 ha         1 KJ2       0.115000
     36 H221         0.3380    -6.6060     3.5650 h1         1 KJ2       0.023200
     37 H222        -0.8600    -5.7690     2.5680 h1         1 KJ2       0.023200
     38 H231        -2.5890    -7.3800     3.2950 hc         1 KJ2       0.042700
     39 H232        -1.3900    -8.2170     4.2900 hc         1 KJ2       0.042700
     40 H241        -1.2520    -7.8690     1.2730 hx         1 KJ2       0.086200
     41 H242        -0.0540    -8.7070     2.2680 hx         1 KJ2       0.086200
     42 H251        -2.8680    -9.4490     2.0040 hn         1 KJ2       0.224133
     43 H252        -1.6090   -10.2200     1.3040 hn         1 KJ2       0.224133
     44 H253        -1.7640   -10.2200     2.9310 hn         1 KJ2       0.224133
@<TRIPOS>BOND
     1     1     2 ar  
     2     1     3 ar  
     3     1     8 1   
     4     2     6 ar  
     5     2     9 1   
     6     3     4 ar  
     7     3    26 1   
     8     4     5 ar  
     9     4     7 1   
    10     5     6 ar  
    11     5    10 1   
    12     6    27 1   
    13     7    28 1   
    14     8    29 1   
    15    10    11 2   
    16    10    14 1   
    17    11    13 1   
    18    11    15 1   
    19    12    13 2   
    20    12    14 1   
    21    13    30 1   
    22    14    31 1   
    23    15    16 ar  
    24    15    19 ar  
    25    16    17 ar  
    26    16    32 1   
    27    17    20 ar  
    28    17    33 1   
    29    18    19 ar  
    30    18    20 ar  
    31    18    34 1   
    32    19    35 1   
    33    20    21 1   
    34    21    22 1   
    35    22    23 1   
    36    22    36 1   
    37    22    37 1   
    38    23    24 1   
    39    23    38 1   
    40    23    39 1   
    41    24    25 1   
    42    24    40 1   
    43    24    41 1   
    44    25    42 1   
    45    25    43 1   
    46    25    44 1   
@<TRIPOS>SUBSTRUCTURE
     1 KJ2         1 TEMP              0 ****  ****    0 ROOT
