@<TRIPOS>MOLECULE
KJ8
   71    75     1     0     0
SMALL
bcc


@<TRIPOS>ATOM
      1 C35        -0.3280   -0.0690   -1.5900 c3        1 KJ8      0.082600
      2 N32         1.1050    0.2470   -1.8380 n4        1 KJ8     -0.679400
      3 C34         1.5480    1.3710   -0.9730 c3        1 KJ8      0.082600
      4 C31         1.9480   -0.9760   -1.6270 c3        1 KJ8      0.108800
      5 C30         3.3350   -0.8790   -2.2510 c3        1 KJ8     -0.195400
      6 C29         4.0100   -2.2460   -2.0680 c         1 KJ8      0.670100
      7 O33         3.4170   -3.1280   -1.4190 o         1 KJ8     -0.586100
      8 N28         5.2470   -2.3890   -2.6460 n         1 KJ8     -0.445100
      9 C26         6.0010   -3.5850   -2.6940 ca        1 KJ8      0.032600
     10 C27         5.4070   -4.8510   -2.5400 ca        1 KJ8     -0.127000
     11 C25         7.3900   -3.4950   -2.9420 ca        1 KJ8     -0.159000
     12 C24         8.1500   -4.6550   -3.0370 ca        1 KJ8     -0.106000
     13 C23         7.5620   -5.9100   -2.8870 ca        1 KJ8     -0.114000
     14 C16         6.1880   -6.0100   -2.6370 ca        1 KJ8     -0.009800
     15 C1          5.5540   -7.3060   -2.4890 cc        1 KJ8     -0.056400
     16 C5          4.5390   -7.8460   -3.3710 ca        1 KJ8     -0.370400
     17 C2          5.7830   -8.2580   -1.5080 cd        1 KJ8      0.120900
     18 C10         6.6440   -8.3370   -0.3500 ca        1 KJ8     -0.058800
     19 C11         6.9450   -9.5850    0.2200 ca        1 KJ8     -0.097000
     20 C12         7.7740   -9.6610    1.3370 ca        1 KJ8     -0.134500
     21 C13         8.3070   -8.4990    1.8960 ca        1 KJ8     -0.107000
     22 C14         8.0070   -7.2570    1.3370 ca        1 KJ8     -0.134500
     23 C15         7.1790   -7.1720    0.2200 ca        1 KJ8     -0.097000
     24 O3          4.9680   -9.4020   -1.7050 os        1 KJ8     -0.291400
     25 C4          4.2100   -9.1430   -2.8450 ca        1 KJ8      0.610600
     26 N6          3.3060  -10.0040   -3.3730 nb        1 KJ8     -0.689000
     27 C7          2.7250   -9.5000   -4.4950 ca        1 KJ8      0.678900
     28 N8          2.9350   -8.3120   -5.1160 nb        1 KJ8     -0.777000
     29 C9          3.8470   -7.4460   -4.5560 ca        1 KJ8      0.713200
     30 N           4.0420   -6.1620   -5.0710 nh        1 KJ8     -0.813900
     31 CA          3.6050   -5.8400   -6.4200 c3        1 KJ8      0.248800
     32 C           4.4600   -6.4800   -7.5400 c3        1 KJ8      0.100400
     33 O           5.8300   -6.2240   -7.2750 oh        1 KJ8     -0.618800
     34 C17         3.5370   -4.3420   -6.6110 ca        1 KJ8     -0.084300
     35 C18         4.7010   -3.5690   -6.6790 ca        1 KJ8     -0.110500
     36 C19         4.6170   -2.1930   -6.8900 ca        1 KJ8     -0.146000
     37 C20         3.3710   -1.5810   -7.0320 ca        1 KJ8     -0.141000
     38 C21         2.2080   -2.3480   -6.9570 ca        1 KJ8     -0.146000
     39 C22         2.2890   -3.7230   -6.7420 ca        1 KJ8     -0.110500
     40 H1         -0.9420    0.8620   -1.7260 hx        1 KJ8      0.106700
     41 H2         -0.4510   -0.4520   -0.5410 hx        1 KJ8      0.106700
     42 H3         -0.6680   -0.8560   -2.3160 hx        1 KJ8      0.106700
     43 H5          1.4260    1.0860    0.1060 hx        1 KJ8      0.106700
     44 H6          2.6280    1.5960   -1.1800 hx        1 KJ8      0.106700
     45 H7          0.9250    2.2790   -1.1930 hx        1 KJ8      0.106700
     46 H8          2.0390   -1.1610   -0.5170 hx        1 KJ8      0.128200
     47 H9          1.4040   -1.8610   -2.0770 hx        1 KJ8      0.128200
     48 H10         3.9530   -0.0920   -1.7450 hc        1 KJ8      0.084200
     49 H11         3.2710   -0.6380   -3.3450 hc        1 KJ8      0.084200
     50 H12         5.6570   -1.6010   -3.0940 hn        1 KJ8      0.324500
     51 H13         4.3270   -4.9510   -2.3360 ha        1 KJ8      0.176000
     52 H14         7.8800   -2.5170   -3.0660 ha        1 KJ8      0.135000
     53 H15         9.2320   -4.5790   -3.2320 ha        1 KJ8      0.149000
     54 H16         8.1750   -6.8220   -2.9650 ha        1 KJ8      0.157000
     55 H17         6.5190  -10.5020   -0.2180 ha        1 KJ8      0.147000
     56 H18         8.0080  -10.6420    1.7780 ha        1 KJ8      0.140000
     57 H19         8.9630   -8.5630    2.7780 ha        1 KJ8      0.140000
     58 H20         8.4240   -6.3400    1.7780 ha        1 KJ8      0.140000
     59 H21         6.9410   -6.1910   -0.2180 ha        1 KJ8      0.147000
     60 H22         1.9750  -10.1620   -4.9810 h5        1 KJ8      0.063100
     61 H23         4.9380   -5.7760   -4.8420 hn        1 KJ8      0.428800
     62 H24         2.5580   -6.2550   -6.5590 h1        1 KJ8      0.096700
     63 H25         4.2740   -7.5870   -7.5660 h1        1 KJ8      0.047200
     64 H26         4.1710   -6.0280   -8.5260 h1        1 KJ8      0.047200
     65 H27         6.3360   -6.7270   -7.9240 ho        1 KJ8      0.416000
     66 H28         5.6860   -4.0600   -6.5940 ha        1 KJ8      0.151000
     67 H29         5.5370   -1.5950   -6.9670 ha        1 KJ8      0.130500
     68 H30         3.3080   -0.5010   -7.2280 ha        1 KJ8      0.126000
     69 H31         1.2260   -1.8730   -7.0900 ha        1 KJ8      0.130500
     70 H32         1.3680   -4.3250   -6.6910 ha        1 KJ8      0.151000
     71 H321        1.2050    0.5380   -2.8200 hn        1 KJ8      0.447800
@<TRIPOS>BOND
     1    1    2 1
     2    1   40 1
     3    1   41 1
     4    1   42 1
     5    2    3 1
     6    2    4 1
     7    2   71 1
     8    3   43 1
     9    3   44 1
    10    3   45 1
    11    4    5 1
    12    4   46 1
    13    4   47 1
    14    5    6 1
    15    5   48 1
    16    5   49 1
    17    6    7 2
    18    6    8 1
    19    8    9 1
    20    8   50 1
    21    9   10 ar
    22    9   11 ar
    23   10   14 ar
    24   10   51 1
    25   11   12 ar
    26   11   52 1
    27   12   13 ar
    28   12   53 1
    29   13   14 ar
    30   13   54 1
    31   14   15 1
    32   15   16 1
    33   15   17 2
    34   16   25 ar
    35   16   29 ar
    36   17   18 1
    37   17   24 1
    38   18   19 ar
    39   18   23 ar
    40   19   20 ar
    41   19   55 1
    42   20   21 ar
    43   20   56 1
    44   21   22 ar
    45   21   57 1
    46   22   23 ar
    47   22   58 1
    48   23   59 1
    49   24   25 1
    50   25   26 ar
    51   26   27 ar
    52   27   28 ar
    53   27   60 1
    54   28   29 ar
    55   29   30 1
    56   30   31 1
    57   30   61 1
    58   31   32 1
    59   31   34 1
    60   31   62 1
    61   32   33 1
    62   32   63 1
    63   32   64 1
    64   33   65 1
    65   34   35 ar
    66   34   39 ar
    67   35   36 ar
    68   35   66 1
    69   36   37 ar
    70   36   67 1
    71   37   38 ar
    72   37   68 1
    73   38   39 ar
    74   38   69 1
    75   39   70 1
@<TRIPOS>SUBSTRUCTURE
     1 KJ8         1 TEMP              0 ****  ****    0 ROOT
