@<TRIPOS>MOLECULE
molecule
   40    42     1     0     0
SMALL
bcc


@<TRIPOS>ATOM
      1 C4           0.0000     0.0000     0.0000 cp         1 KJD      -0.238300
      2 C14         -2.8390    -0.0180    -2.4650 ca         1 KJD      -0.019000
      3 C5           1.3970     0.0000     0.0000 ca         1 KJD      -0.044000
      4 C6           3.5390     0.0000     1.2830 cp         1 KJD       0.013000
      5 C11          5.5870     0.9270     2.1310 ca         1 KJD       0.131900
      6 C7          -0.7520    -0.0060    -1.2790 cp         1 KJD       0.097000
      7 C8           4.2670    -0.9200     0.5290 ca         1 KJD      -0.160000
      8 C9           5.6480    -0.9140     0.5810 ca         1 KJD       0.131900
      9 C10          6.3110     0.0080     1.3800 ca         1 KJD       0.042100
     10 C12          4.2070     0.9250     2.0840 ca         1 KJD      -0.160000
     11 C13         -2.1450    -0.0120    -1.2720 ca         1 KJD      -0.139000
     12 N1          -0.0230     0.0000     2.3590 nb         1 KJD      -0.701000
     13 C3          -0.6790     0.0000     1.2160 ca         1 KJD       0.476200
     14 N3          -3.2920    -1.6140    -5.6010 nz         1 KJD      -0.805500
     15 C1           2.0570     0.0000     1.2260 cp         1 KJD      -0.170300
     16 C2           1.3000     0.0000     2.4060 ca         1 KJD       0.739200
     17 C15         -2.1530    -0.0230    -3.6670 ca         1 KJD      -0.355500
     18 C16         -0.7710    -0.0220    -3.6800 ca         1 KJD      -0.019000
     19 C17         -0.0660    -0.0170    -2.4920 ca         1 KJD      -0.139000
     20 F1           6.3540    -1.8050    -0.1490 f          1 KJD      -0.116400
     21 O1           7.6690     0.0120     1.4290 oh         1 KJD      -0.491100
     22 F2           6.2350     1.8230     2.9080 f          1 KJD      -0.116400
     23 S1          -3.0450    -0.0300    -5.1870 sy         1 KJD       1.223200
     24 O2          -2.1710     0.5100    -6.1680 o          1 KJD      -0.519800
     25 O3          -4.3270     0.5150    -4.9020 o          1 KJD      -0.519800
     26 H1          -3.9220    -0.0200    -2.4610 ha         1 KJD       0.155500
     27 H2           1.9390    -0.2390    -0.9070 ha         1 KJD       0.146000
     28 H3           3.7510    -1.6770    -0.0480 ha         1 KJD       0.156000
     29 H4           3.9310     1.9060     2.4530 ha         1 KJD       0.156000
     30 H5          -2.6830    -0.0080    -0.3320 ha         1 KJD       0.166000
     31 H6           2.0100     0.8470     4.1640 hn         1 KJD       0.452300
     32 H7           2.2910    -0.8570     4.0170 hn         1 KJD       0.452300
     33 H8          -1.7620     0.0000     1.2220 h4         1 KJD       0.027100
     34 H9          -3.8040    -1.6580    -6.4600 hn         1 KJD       0.491133
     35 H10         -2.4090    -2.0700    -5.7160 hn         1 KJD       0.491133
     36 H11         -0.2390    -0.0280    -4.6230 ha         1 KJD       0.155500
     37 H12          1.0170    -0.0170    -2.5040 ha         1 KJD       0.166000
     38 H13          7.9610    -0.5580     2.1210 ho         1 KJD       0.432000
     39 N2           1.9430     0.0000     3.6350 nv         1 KJD      -1.073500
     40 H33         -3.8160    -2.0700    -4.8810 hn         1 KJD       0.491133
@<TRIPOS>BOND
     1    24    23 2
     2    14    23 1
     3    20     8 1
     4    21     9 1
     5    23    17 1
     6    23    25 2
     7     8     9 ar
     8     8     7 ar
     9     9     5 ar
    10    17    18 ar
    11    17     2 ar
    12     7     4 ar
    13    18    19 ar
    14     2    11 ar
    15     5    22 1
    16     5    10 ar
    17    19     6 ar
    18    11     6 ar
    19     4    10 ar
    20     4    15 1
    21     3    15 ar
    22     3     1 ar
    23     6     1 1
    24    15    16 ar
    25     1    13 ar
    26    16    39 1
    27    16    12 ar
    28    13    12 ar
    29     2    26 1
    30     3    27 1
    31     7    28 1
    32    10    29 1
    33    11    30 1
    34    39    31 1
    35    39    32 1
    36    13    33 1
    37    14    34 1
    38    14    35 1
    39    18    36 1
    40    19    37 1
    41    21    38 1
    42    40    14 1
@<TRIPOS>SUBSTRUCTURE
     1 KJD         1 TEMP              0 ****  ****    0 ROOT
