@<TRIPOS>MOLECULE
molecule
   82    87     1     0     0
SMALL
bcc


@<TRIPOS>ATOM
      1 C13          0.0000     0.0000     0.0000 cp         1 KJJ       0.018000
      2 C18          1.3970     0.0000     0.0000 ca         1 KJJ      -0.123600
      3 C17          2.0610     0.0000     1.2080 ca         1 KJJ       0.441600
      4 C15          0.0710     0.0050     2.3930 ca         1 KJJ       0.419600
      5 C19          2.1640    -0.0010    -1.2980 c3         1 KJJ       0.067400
      6 C20          2.1100    -1.3770    -1.9110 c          1 KJJ       0.872600
      7 C34         -4.6620     0.9530     3.8810 cx         1 KJJ      -0.101700
      8 C2          -1.1800     1.1940    -1.8420 ca         1 KJJ      -0.025300
      9 C3          -0.7590    -0.0050    -1.2740 cp         1 KJJ      -0.027000
     10 C4          -1.0530    -1.2120    -1.9080 ca         1 KJJ      -0.055000
     11 C5          -1.7570    -1.2100    -3.0930 ca         1 KJJ       0.112900
     12 C6          -2.1750    -0.0070    -3.6620 ca         1 KJJ       0.103100
     13 C7          -1.8910     1.1920    -3.0280 ca         1 KJJ      -0.158300
     14 C8          -2.3420     2.5110    -3.6030 c3         1 KJJ      -0.020100
     15 C9          -2.6990     2.3340    -5.0810 c3         1 KJJ      -0.125400
     16 C10         -3.6110     1.1070    -5.2120 c3         1 KJJ       0.144400
     17 O11         -2.8570    -0.0500    -4.8370 os         1 KJJ      -0.324900
     18 F12         -2.0430    -2.3790    -3.7080 f          1 KJJ      -0.140900
     19 C14         -0.6670     0.0000     1.2320 ca         1 KJJ      -0.202600
     20 N16          1.3960     0.0040     2.3440 nb         1 KJJ      -0.714000
     21 O21          1.5290    -1.5500    -2.9560 o          1 KJJ      -0.827300
     22 O22          2.7100    -2.4090    -1.2970 o          1 KJJ      -0.827300
     23 O23          1.5810     0.9440    -2.1970 os         1 KJJ      -0.402600
     24 C28          3.5680    -0.0030     1.2300 c3         1 KJJ      -0.144400
     25 C29         -0.5950     0.0140     3.7460 c3         1 KJJ      -0.111700
     26 C30         -2.0580    -0.4080     3.6120 c3         1 KJJ       0.154800
     27 N31         -2.6820     0.3980     2.5510 n3         1 KJJ      -0.724600
     28 C32         -2.1720    -0.0090     1.2380 c3         1 KJJ       0.216100
     29 C35         -5.5600     2.1820     3.7290 cx         1 KJJ      -0.129400
     30 C36         -6.1590     0.8470     4.1790 cx         1 KJJ      -0.104400
     31 C37         -7.0140     0.1000     3.1890 ca         1 KJJ      -0.040300
     32 C38         -7.0830     0.5260     1.8750 ca         1 KJJ      -0.128000
     33 C39         -7.8670    -0.1600     0.9660 ca         1 KJJ      -0.125000
     34 C40         -8.5810    -1.2730     1.3710 ca         1 KJJ      -0.135000
     35 C41         -8.5110    -1.7000     2.6840 ca         1 KJJ      -0.125000
     36 C42         -7.7230    -1.0160     3.5910 ca         1 KJJ      -0.128000
     37 H1           3.1960     0.2700    -1.1080 h1         1 KJJ       0.043700
     38 H2          -4.0250     0.9630     4.7580 hc         1 KJJ       0.087700
     39 H3           4.0270     3.0440    -2.9450 hc         1 KJJ       0.036367
     40 H4           4.3770     1.5520    -2.0600 hc         1 KJJ       0.036367
     41 H5           3.1870     2.6980    -1.4270 hc         1 KJJ       0.036367
     42 H6          -4.4340    -0.7520     2.5940 h1         1 KJJ       0.041200
     43 H7          -4.5760     0.7910     1.7410 h1         1 KJJ       0.041200
     44 H8          -0.4020     3.1760    -1.8690 hc         1 KJJ       0.040367
     45 H9          -1.7780     2.9420    -0.7830 hc         1 KJJ       0.040367
     46 H10         -0.1830     2.3220    -0.3360 hc         1 KJJ       0.040367
     47 H11         -0.8070    -2.1500    -1.4260 ha         1 KJJ       0.166000
     48 H12         -3.2150     2.8590    -3.0620 hc         1 KJJ       0.045700
     49 H13         -1.5420     3.2350    -3.5100 hc         1 KJJ       0.045700
     50 H14         -1.7950     2.1790    -5.6580 hc         1 KJJ       0.049700
     51 H15         -3.2200     3.2140    -5.4380 hc         1 KJJ       0.049700
     52 H16         -3.9220     1.0060    -6.2450 h1         1 KJJ       0.045700
     53 H17         -4.4500     1.2160    -4.5370 h1         1 KJJ       0.045700
     54 H19          1.3490     3.3080    -3.4170 hc         1 KJJ       0.036367
     55 H20          2.4790     2.9470    -4.7290 hc         1 KJJ       0.036367
     56 H21          0.9960     1.9980    -4.5520 hc         1 KJJ       0.036367
     57 H22          3.7190    -0.2380    -3.3240 hc         1 KJJ       0.036367
     58 H23          3.8200     0.9380    -4.6410 hc         1 KJJ       0.036367
     59 H24          2.4270    -0.1470    -4.5300 hc         1 KJJ       0.036367
     60 H25          3.9360    -0.8110     0.6090 hc         1 KJJ       0.052700
     61 H26          3.9140    -0.1430     2.2470 hc         1 KJJ       0.052700
     62 H27          3.9370     0.9420     0.8500 hc         1 KJJ       0.052700
     63 H28         -0.5470     1.0140     4.1610 hc         1 KJJ       0.055700
     64 H29         -0.0810    -0.6780     4.4020 hc         1 KJJ       0.055700
     65 H30         -2.5730    -0.2360     4.5500 h1         1 KJJ       0.033200
     66 H31         -2.1110    -1.4580     3.3490 h1         1 KJJ       0.033200
     67 H33         -2.5350     0.6790     0.4850 h1         1 KJJ       0.047700
     68 H34         -2.5220    -1.0100     1.0150 h1         1 KJJ       0.047700
     69 H35         -5.7830     2.4750     2.7100 hc         1 KJJ       0.074700
     70 H36         -5.4590     2.9340     4.5030 hc         1 KJJ       0.074700
     71 H37         -6.4100     0.7940     5.2310 hc         1 KJJ       0.081700
     72 H38         -6.5240     1.3980     1.5580 ha         1 KJJ       0.132000
     73 H39         -7.9220     0.1750    -0.0630 ha         1 KJJ       0.127500
     74 H40         -9.1970    -1.8090     0.6590 ha         1 KJJ       0.126000
     75 H41         -9.0680    -2.5730     3.0010 ha         1 KJJ       0.127500
     76 H42         -7.6680    -1.3510     4.6200 ha         1 KJJ       0.132000
     77 C24          2.5120     1.5280    -3.1110 c3         1 KJJ       0.155800
     78 C33         -4.1470     0.2920     2.6020 c3         1 KJJ       0.191800
     79 C25          1.7820     2.5190    -4.0180 c3         1 KJJ      -0.101767
     80 C26          3.1490     0.4280    -3.9610 c3         1 KJJ      -0.101767
     81 C1          -0.8630     2.5000    -1.1600 c3         1 KJJ      -0.041800
     82 C27          3.6030     2.2620    -2.3270 c3         1 KJJ      -0.101767
@<TRIPOS>BOND
     1    14    15 1
     2    14    13 1
     3    15    16 1
     4    81     8 1
     5    21     6 1
     6    16    17 1
     7    22     6 1
     8    13     8 ar
     9    13    12 ar
    10     6     5 1
    11     8     9 ar
    12    29    30 1
    13    29     7 1
    14    32    33 ar
    15    32    31 ar
    16    33    34 ar
    17    17    12 1
    18    12    11 ar
    19    30    31 1
    20    30     7 1
    21     5     2 1
    22     5    23 1
    23     9     1 1
    24     9    10 ar
    25    31    36 ar
    26     7    78 1
    27     1     2 ar
    28     1    19 ar
    29     2     3 ar
    30    34    35 ar
    31    27    28 1
    32    27    78 1
    33    27    26 1
    34    28    19 1
    35    19     4 ar
    36     3    24 1
    37     3    20 ar
    38     4    20 ar
    39     4    25 1
    40    23    77 1
    41    11    10 ar
    42    11    18 1
    43    25    26 1
    44    36    35 ar
    45    79    77 1
    46    77    80 1
    47    77    82 1
    48     5    37 1
    49     7    38 1
    50    82    39 1
    51    82    40 1
    52    82    41 1
    53    78    42 1
    54    78    43 1
    55    81    44 1
    56    81    45 1
    57    81    46 1
    58    10    47 1
    59    14    48 1
    60    14    49 1
    61    15    50 1
    62    15    51 1
    63    16    52 1
    64    16    53 1
    65    79    54 1
    66    79    55 1
    67    79    56 1
    68    80    57 1
    69    80    58 1
    70    80    59 1
    71    24    60 1
    72    24    61 1
    73    24    62 1
    74    25    63 1
    75    25    64 1
    76    26    65 1
    77    26    66 1
    78    28    67 1
    79    28    68 1
    80    29    69 1
    81    29    70 1
    82    30    71 1
    83    32    72 1
    84    33    73 1
    85    34    74 1
    86    35    75 1
    87    36    76 1
@<TRIPOS>SUBSTRUCTURE
     1 KJJ         1 TEMP              0 ****  ****    0 ROOT
