@<TRIPOS>MOLECULE
KJJ
   82    87     1     0     0
SMALL
bcc


@<TRIPOS>ATOM
      1 C13          0.0000     0.0000     0.0000 cp         1 KJJ       0.024000
      2 C18          1.3970     0.0000     0.0000 ca         1 KJJ      -0.119600
      3 C17          2.0610     0.0000     1.2080 ca         1 KJJ       0.390600
      4 C15          0.0710     0.0050     2.3930 ca         1 KJJ       0.363600
      5 C19          2.1640    -0.0010    -1.2980 c3         1 KJJ       0.092400
      6 C20          2.1100    -1.3770    -1.9110 c          1 KJJ       0.955600
      7 C34         -4.6620     0.9530     3.8810 cx         1 KJJ      -0.086700
      8 C2          -1.1800     1.1940    -1.8420 ca         1 KJJ      -0.031300
      9 C3          -0.7590    -0.0050    -1.2740 cp         1 KJJ      -0.026000
     10 C4          -1.0530    -1.2120    -1.9080 ca         1 KJJ      -0.019000
     11 C5          -1.7570    -1.2100    -3.0930 ca         1 KJJ       0.076900
     12 C6          -2.1750    -0.0070    -3.6620 ca         1 KJJ       0.121100
     13 C7          -1.8910     1.1920    -3.0280 ca         1 KJJ      -0.172300
     14 C8          -2.3420     2.5110    -3.6030 c3         1 KJJ       0.046900
     15 C9          -2.6990     2.3340    -5.0810 c3         1 KJJ      -0.075400
     16 C10         -3.6110     1.1070    -5.2120 c3         1 KJJ       0.213400
     17 O11         -2.8570    -0.0500    -4.8370 os         1 KJJ      -0.300900
     18 F12         -2.0430    -2.3790    -3.7080 f          1 KJJ      -0.130900
     19 C14         -0.6670     0.0000     1.2320 ca         1 KJJ      -0.208600
     20 N16          1.3960     0.0040     2.3440 nb         1 KJJ      -0.597000
     21 O21          1.5290    -1.5500    -2.9560 o          1 KJJ      -0.876800
     22 O22          2.7100    -2.4090    -1.2970 o          1 KJJ      -0.876800
     23 O23          1.5810     0.9440    -2.1970 os         1 KJJ      -0.381600
     24 C28          3.5680    -0.0030     1.2300 c3         1 KJJ      -0.060400
     25 C29         -0.5950     0.0140     3.7460 c3         1 KJJ      -0.054700
     26 C30         -2.0580    -0.4080     3.6120 c3         1 KJJ       0.139800
     27 N31         -2.6820     0.3980     2.5510 n3         1 KJJ      -0.538600
     28 C32         -2.1720    -0.0090     1.2380 c3         1 KJJ       0.217100
     29 C35         -5.5600     2.1820     3.7290 cx         1 KJJ      -0.085400
     30 C36         -6.1590     0.8470     4.1790 cx         1 KJJ      -0.066400
     31 C37         -7.0140     0.1000     3.1890 ca         1 KJJ      -0.039300
     32 C38         -7.0830     0.5260     1.8750 ca         1 KJJ      -0.108500
     33 C39         -7.8670    -0.1600     0.9660 ca         1 KJJ      -0.096500
     34 C40         -8.5810    -1.2730     1.3710 ca         1 KJJ      -0.110000
     35 C41         -8.5110    -1.7000     2.6840 ca         1 KJJ      -0.096500
     36 C42         -7.7230    -1.0160     3.5910 ca         1 KJJ      -0.108500
     37 H1           3.1960     0.2700    -1.1080 h1         1 KJJ       0.029700
     38 H2          -4.0250     0.9630     4.7580 hc         1 KJJ       0.066700
     39 H3           4.0270     3.0440    -2.9450 hc         1 KJJ       0.011033
     40 H4           4.3770     1.5520    -2.0600 hc         1 KJJ       0.011033
     41 H5           3.1870     2.6980    -1.4270 hc         1 KJJ       0.011033
     42 H6          -4.4340    -0.7520     2.5940 h1         1 KJJ       0.017700
     43 H7          -4.5760     0.7910     1.7410 h1         1 KJJ       0.017700
     44 H8          -0.4020     3.1760    -1.8690 hc         1 KJJ       0.011367
     45 H9          -1.7780     2.9420    -0.7830 hc         1 KJJ       0.011367
     46 H10         -0.1830     2.3220    -0.3360 hc         1 KJJ       0.011367
     47 H11         -0.8070    -2.1500    -1.4260 ha         1 KJJ       0.135000
     48 H12         -3.2150     2.8590    -3.0620 hc         1 KJJ       0.017700
     49 H13         -1.5420     3.2350    -3.5100 hc         1 KJJ       0.017700
     50 H14         -1.7950     2.1790    -5.6580 hc         1 KJJ       0.021700
     51 H15         -3.2200     3.2140    -5.4380 hc         1 KJJ       0.021700
     52 H16         -3.9220     1.0060    -6.2450 h1         1 KJJ       0.006200
     53 H17         -4.4500     1.2160    -4.5370 h1         1 KJJ       0.006200
     54 H19          1.3490     3.3080    -3.4170 hc         1 KJJ       0.011033
     55 H20          2.4790     2.9470    -4.7290 hc         1 KJJ       0.011033
     56 H21          0.9960     1.9980    -4.5520 hc         1 KJJ       0.011033
     57 H22          3.7190    -0.2380    -3.3240 hc         1 KJJ       0.011033
     58 H23          3.8200     0.9380    -4.6410 hc         1 KJJ       0.011033
     59 H24          2.4270    -0.1470    -4.5300 hc         1 KJJ       0.011033
     60 H25          3.9360    -0.8110     0.6090 hc         1 KJJ       0.019700
     61 H26          3.9140    -0.1430     2.2470 hc         1 KJJ       0.019700
     62 H27          3.9370     0.9420     0.8500 hc         1 KJJ       0.019700
     63 H28         -0.5470     1.0140     4.1610 hc         1 KJJ       0.021700
     64 H29         -0.0810    -0.6780     4.4020 hc         1 KJJ       0.021700
     65 H30         -2.5730    -0.2360     4.5500 h1         1 KJJ       0.009700
     66 H31         -2.1110    -1.4580     3.3490 h1         1 KJJ       0.009700
     67 H33         -2.5350     0.6790     0.4850 h1         1 KJJ       0.020700
     68 H34         -2.5220    -1.0100     1.0150 h1         1 KJJ       0.020700
     69 H35         -5.7830     2.4750     2.7100 hc         1 KJJ       0.049200
     70 H36         -5.4590     2.9340     4.5030 hc         1 KJJ       0.049200
     71 H37         -6.4100     0.7940     5.2310 hc         1 KJJ       0.055700
     72 H38         -6.5240     1.3980     1.5580 ha         1 KJJ       0.112000
     73 H39         -7.9220     0.1750    -0.0630 ha         1 KJJ       0.100500
     74 H40         -9.1970    -1.8090     0.6590 ha         1 KJJ       0.100000
     75 H41         -9.0680    -2.5730     3.0010 ha         1 KJJ       0.100500
     76 H42         -7.6680    -1.3510     4.6200 ha         1 KJJ       0.112000
     77 C24          2.5120     1.5280    -3.1110 c3         1 KJJ       0.163800
     78 C33         -4.1470     0.2920     2.6020 c3         1 KJJ       0.178800
     79 C25          1.7820     2.5190    -4.0180 c3         1 KJJ      -0.030767
     80 C26          3.1490     0.4280    -3.9610 c3         1 KJJ      -0.030767
     81 C1          -0.8630     2.5000    -1.1600 c3         1 KJJ       0.043200
     82 C27          3.6030     2.2620    -2.3270 c3         1 KJJ      -0.030767
@<TRIPOS>BOND
     1     1     2 ar  
     2     1     9 1   
     3     1    19 ar  
     4     2     3 ar  
     5     2     5 1   
     6     3    20 ar  
     7     3    24 1   
     8     4    19 ar  
     9     4    20 ar  
    10     4    25 1   
    11     5     6 1   
    12     5    23 1   
    13     5    37 1   
    14     6    21 1   
    15     6    22 1   
    16     7    29 1   
    17     7    30 1   
    18     7    38 1   
    19     7    78 1   
    20     8     9 ar  
    21     8    13 ar  
    22     8    81 1   
    23     9    10 ar  
    24    10    11 ar  
    25    10    47 1   
    26    11    12 ar  
    27    11    18 1   
    28    12    13 ar  
    29    12    17 1   
    30    13    14 1   
    31    14    15 1   
    32    14    48 1   
    33    14    49 1   
    34    15    16 1   
    35    15    50 1   
    36    15    51 1   
    37    16    17 1   
    38    16    52 1   
    39    16    53 1   
    40    19    28 1   
    41    23    77 1   
    42    24    60 1   
    43    24    61 1   
    44    24    62 1   
    45    25    26 1   
    46    25    63 1   
    47    25    64 1   
    48    26    27 1   
    49    26    65 1   
    50    26    66 1   
    51    27    28 1   
    52    27    78 1   
    53    28    67 1   
    54    28    68 1   
    55    29    30 1   
    56    29    69 1   
    57    29    70 1   
    58    30    31 1   
    59    30    71 1   
    60    31    32 ar  
    61    31    36 ar  
    62    32    33 ar  
    63    32    72 1   
    64    33    34 ar  
    65    33    73 1   
    66    34    35 ar  
    67    34    74 1   
    68    35    36 ar  
    69    35    75 1   
    70    36    76 1   
    71    39    82 1   
    72    40    82 1   
    73    41    82 1   
    74    42    78 1   
    75    43    78 1   
    76    44    81 1   
    77    45    81 1   
    78    46    81 1   
    79    54    79 1   
    80    55    79 1   
    81    56    79 1   
    82    57    80 1   
    83    58    80 1   
    84    59    80 1   
    85    77    79 1   
    86    77    80 1   
    87    77    82 1   
@<TRIPOS>SUBSTRUCTURE
     1 KJJ         1 TEMP              0 ****  ****    0 ROOT
