@<TRIPOS>MOLECULE
KJQ
   52    56     1     0     0
SMALL
bcc


@<TRIPOS>ATOM
      1 C3          0.1250    0.0780   -0.0700 ca        1 KJQ     -0.383400
      2 C2          1.5720    0.0490   -0.0920 cc        1 KJQ     -0.028400
      3 N8         -2.2410    0.1150   -0.5680 nb        1 KJQ     -0.788000
      4 C9         -2.4350    0.1350    0.7740 ca        1 KJQ      0.679900
      5 C6         -0.9390    0.1020   -1.0270 ca        1 KJQ      0.735200
      6 C4         -0.2530    0.0970    1.3150 ca        1 KJQ      0.613600
      7 C1          1.9920    0.0450    1.2290 cd        1 KJQ      0.093900
      8 C23        -1.7600    1.7100   -5.2370 ca        1 KJQ     -0.110500
      9 C25        -1.3340    2.2190   -6.4630 ca        1 KJQ     -0.135000
     10 C27        -0.3230    1.5740   -7.1760 ca        1 KJQ     -0.122000
     11 C26         0.2600    0.4160   -6.6610 ca        1 KJQ     -0.135000
     12 C24        -0.1650   -0.0980   -5.4370 ca        1 KJQ     -0.110500
     13 C22        -1.1810    0.5440   -4.7220 ca        1 KJQ     -0.101300
     14 CA         -1.6610    0.0030   -3.3960 c3        1 KJQ      0.266800
     15 C          -2.1520   -1.4560   -3.5580 c3        1 KJQ      0.101400
     16 O          -1.0310   -2.3180   -3.6720 oh        1 KJQ     -0.611800
     17 N          -0.6450    0.1860   -2.3770 nh        1 KJQ     -0.819900
     18 N7         -1.5250    0.1280    1.7860 nb        1 KJQ     -0.708000
     19 O5          0.8840    0.0760    2.1200 os        1 KJQ     -0.299400
     20 C10         3.2800    0.0120    1.8810 ca        1 KJQ     -0.042800
     21 C14         3.3920    0.3300    3.2450 ca        1 KJQ     -0.101500
     22 C17         4.6350    0.2980    3.8710 ca        1 KJQ     -0.135000
     23 C21         5.7770   -0.0510    3.1490 ca        1 KJQ     -0.117000
     24 C18         5.6710   -0.3720    1.7960 ca        1 KJQ     -0.135000
     25 C15         4.4310   -0.3440    1.1620 ca        1 KJQ     -0.101500
     26 C11         2.3890    0.0430   -1.2900 ca        1 KJQ     -0.045800
     27 C13         3.0270    1.2160   -1.7180 ca        1 KJQ     -0.114500
     28 C16         3.8080    1.2060   -2.8730 ca        1 KJQ     -0.133000
     29 C20         3.9580    0.0320   -3.6090 ca        1 KJQ     -0.123000
     30 C19         3.3220   -1.1370   -3.1900 ca        1 KJQ     -0.133000
     31 C12         2.5380   -1.1350   -2.0380 ca        1 KJQ     -0.114500
     32 H1         -3.4990    0.1560    1.0950 h5        1 KJQ      0.054100
     33 H2         -2.5510    2.2280   -4.6740 ha        1 KJQ      0.143500
     34 H3         -1.7940    3.1330   -6.8650 ha        1 KJQ      0.132500
     35 H4          0.0130    1.9780   -8.1420 ha        1 KJQ      0.131000
     36 H5          1.0580   -0.0940   -7.2210 ha        1 KJQ      0.132500
     37 H6          0.2850   -1.0190   -5.0330 ha        1 KJQ      0.143500
     38 H7         -2.5760    0.5980   -3.0840 h1        1 KJQ      0.090700
     39 H8         -2.7650   -1.7470   -2.6630 h1        1 KJQ      0.041700
     40 H9         -2.7830   -1.5240   -4.4830 h1        1 KJQ      0.041700
     41 H10        -1.3800   -3.2150   -3.7210 ho        1 KJQ      0.407000
     42 H11         0.2740   -0.1210   -2.6330 hn        1 KJQ      0.445800
     43 H12         2.4900    0.6030    3.8150 ha        1 KJQ      0.149000
     44 H13         4.7150    0.5500    4.9390 ha        1 KJQ      0.135500
     45 H14         6.7580   -0.0750    3.6460 ha        1 KJQ      0.133000
     46 H15         6.5690   -0.6500    1.2240 ha        1 KJQ      0.135500
     47 H16         4.3510   -0.5990    0.0930 ha        1 KJQ      0.149000
     48 H17         2.9090    2.1440   -1.1390 ha        1 KJQ      0.144500
     49 H18         4.3040    2.1310   -3.2040 ha        1 KJQ      0.135500
     50 H19         4.5750    0.0270   -4.5190 ha        1 KJQ      0.134000
     51 H20         3.4380   -2.0650   -3.7690 ha        1 KJQ      0.135500
     52 H21         2.0370   -2.0580   -1.7090 ha        1 KJQ      0.144500
@<TRIPOS>BOND
     1    1    2 1
     2    1    5 ar
     3    1    6 ar
     4    2    7 2
     5    2   26 1
     6    3    4 ar
     7    3    5 ar
     8    4   18 ar
     9    4   32 1
    10    5   17 1
    11    6   18 ar
    12    6   19 1
    13    7   19 1
    14    7   20 1
    15    8    9 ar
    16    8   13 ar
    17    8   33 1
    18    9   10 ar
    19    9   34 1
    20   10   11 ar
    21   10   35 1
    22   11   12 ar
    23   11   36 1
    24   12   13 ar
    25   12   37 1
    26   13   14 1
    27   14   15 1
    28   14   17 1
    29   14   38 1
    30   15   16 1
    31   15   39 1
    32   15   40 1
    33   16   41 1
    34   17   42 1
    35   20   21 ar
    36   20   25 ar
    37   21   22 ar
    38   21   43 1
    39   22   23 ar
    40   22   44 1
    41   23   24 ar
    42   23   45 1
    43   24   25 ar
    44   24   46 1
    45   25   47 1
    46   26   27 ar
    47   26   31 ar
    48   27   28 ar
    49   27   48 1
    50   28   29 ar
    51   28   49 1
    52   29   30 ar
    53   29   50 1
    54   30   31 ar
    55   30   51 1
    56   31   52 1
@<TRIPOS>SUBSTRUCTURE
     1 KJQ         1 TEMP              0 ****  ****    0 ROOT
