@<TRIPOS>MOLECULE
KJR
   59    63     1     0     0
SMALL
bcc


@<TRIPOS>ATOM
      1 C24        -0.1900    0.1290   -0.4140 c3        1 KJR     -0.179100
      2 C23         1.2850   -0.0400   -0.1290 c         1 KJR      0.665100
      3 O25         1.6800   -0.5000    0.9560 o         1 KJR     -0.581100
      4 N22         2.1470    0.3420   -1.1510 n         1 KJR     -0.477100
      5 C20         3.5500    0.3170   -1.1440 ca        1 KJR      0.068600
      6 C21         4.3020   -0.3330   -0.1430 ca        1 KJR     -0.138000
      7 C19         4.2390    0.9610   -2.2020 ca        1 KJR     -0.182000
      8 C18         5.6280    0.9540   -2.2400 ca        1 KJR     -0.106000
      9 C17         6.3670    0.3180   -1.2460 ca        1 KJR     -0.144000
     10 C16         5.7010   -0.3320   -0.1990 ca        1 KJR     -0.022800
     11 C15         6.4620   -1.0020    0.8390 cc        1 KJR     -0.028400
     12 C1          7.2380   -0.3370    1.8650 ca        1 KJR     -0.379400
     13 C14         6.5870   -2.3640    1.0630 cd        1 KJR      0.097900
     14 C26         6.0900   -3.5490    0.4040 ca        1 KJR     -0.041800
     15 C27         5.5910   -3.4770   -0.9060 ca        1 KJR     -0.099000
     16 C28         5.1150   -4.6240   -1.5370 ca        1 KJR     -0.135500
     17 C29         5.1340   -5.8510   -0.8750 ca        1 KJR     -0.117000
     18 C30         5.6320   -5.9300    0.4260 ca        1 KJR     -0.135500
     19 C31         6.1090   -4.7890    1.0650 ca        1 KJR     -0.099000
     20 O13         7.4020   -2.6260    2.1980 os        1 KJR     -0.298400
     21 C2          7.7920   -1.3800    2.6830 ca        1 KJR      0.613600
     22 N3          8.5750   -1.1940    3.7760 nb        1 KJR     -0.707000
     23 C4          8.7820    0.1280    4.0260 ca        1 KJR      0.678900
     24 N5          8.3320    1.2180    3.3580 nb        1 KJR     -0.787000
     25 C6          7.5560    1.0070    2.2370 ca        1 KJR      0.732200
     26 N           7.1520    2.0580    1.4260 nh        1 KJR     -0.818900
     27 CA          7.2290    3.4360    1.8740 c3        1 KJR      0.261800
     28 C           6.1880    3.8130    2.9550 c3        1 KJR      0.101400
     29 O           4.8990    3.4090    2.5230 oh        1 KJR     -0.609800
     30 C7          7.1310    4.3790    0.6970 ca        1 KJR     -0.098300
     31 C8          5.9270    4.5440    0.0050 ca        1 KJR     -0.109500
     32 C9          5.8580    5.4240   -1.0750 ca        1 KJR     -0.136500
     33 C10         6.9880    6.1390   -1.4700 ca        1 KJR     -0.123000
     34 C11         8.1910    5.9730   -0.7830 ca        1 KJR     -0.136500
     35 C12         8.2650    5.0920    0.2950 ca        1 KJR     -0.109500
     36 H1         -0.4920   -0.4800   -1.3000 hc        1 KJR      0.069033
     37 H2         -0.7650   -0.2190    0.4780 hc        1 KJR      0.069033
     38 H3         -0.4330    1.2020   -0.6060 hc        1 KJR      0.069033
     39 H4          1.7320    0.7410   -1.9640 hn        1 KJR      0.314500
     40 H5          3.7990   -0.8450    0.6960 ha        1 KJR      0.183000
     41 H6          3.6830    1.4730   -3.0020 ha        1 KJR      0.130000
     42 H7          6.1500    1.4620   -3.0660 ha        1 KJR      0.138000
     43 H8          7.4660    0.3240   -1.2800 ha        1 KJR      0.149000
     44 H9          5.5740   -2.5080   -1.4310 ha        1 KJR      0.148500
     45 H10         4.7250   -4.5580   -2.5640 ha        1 KJR      0.134000
     46 H11         4.7580   -6.7540   -1.3770 ha        1 KJR      0.132000
     47 H12         5.6490   -6.8960    0.9510 ha        1 KJR      0.134000
     48 H13         6.5050   -4.8510    2.0910 ha        1 KJR      0.148500
     49 H14         9.4120    0.3470    4.9150 h5        1 KJR      0.054100
     50 H15         6.3770    1.8530    0.8260 hn        1 KJR      0.443800
     51 H16         8.2420    3.5880    2.3610 h1        1 KJR      0.090700
     52 H17         6.2020    4.9260    3.1020 h1        1 KJR      0.042200
     53 H18         6.4520    3.3060    3.9210 h1        1 KJR      0.042200
     54 H19         4.3240    3.4390    3.2970 ho        1 KJR      0.408000
     55 H20         5.0320    3.9870    0.3270 ha        1 KJR      0.145000
     56 H21         4.9080    5.5540   -1.6140 ha        1 KJR      0.131000
     57 H22         6.9310    6.8340   -2.3200 ha        1 KJR      0.130000
     58 H23         9.0840    6.5340   -1.0940 ha        1 KJR      0.131000
     59 H24         9.2190    4.9580    0.8270 ha        1 KJR      0.145000
@<TRIPOS>BOND
     1    1    2 1
     2    1   36 1
     3    1   37 1
     4    1   38 1
     5    2    3 2
     6    2    4 1
     7    4    5 1
     8    4   39 1
     9    5    6 ar
    10    5    7 ar
    11    6   10 ar
    12    6   40 1
    13    7    8 ar
    14    7   41 1
    15    8    9 ar
    16    8   42 1
    17    9   10 ar
    18    9   43 1
    19   10   11 1
    20   11   12 1
    21   11   13 2
    22   12   21 ar
    23   12   25 ar
    24   13   14 1
    25   13   20 1
    26   14   15 ar
    27   14   19 ar
    28   15   16 ar
    29   15   44 1
    30   16   17 ar
    31   16   45 1
    32   17   18 ar
    33   17   46 1
    34   18   19 ar
    35   18   47 1
    36   19   48 1
    37   20   21 1
    38   21   22 ar
    39   22   23 ar
    40   23   24 ar
    41   23   49 1
    42   24   25 ar
    43   25   26 1
    44   26   27 1
    45   26   50 1
    46   27   28 1
    47   27   30 1
    48   27   51 1
    49   28   29 1
    50   28   52 1
    51   28   53 1
    52   29   54 1
    53   30   31 ar
    54   30   35 ar
    55   31   32 ar
    56   31   55 1
    57   32   33 ar
    58   32   56 1
    59   33   34 ar
    60   33   57 1
    61   34   35 ar
    62   34   58 1
    63   35   59 1
@<TRIPOS>SUBSTRUCTURE
     1 KJR         1 TEMP              0 ****  ****    0 ROOT
