@<TRIPOS>MOLECULE
KJU
   18    19     1     0     0
SMALL
bcc


@<TRIPOS>ATOM
      1 C1           0.0000     0.0000     0.0000 ca         1 KJU      -0.088000
      2 C2           1.3830     0.0000     0.0000 ca         1 KJU      -0.091000
      3 C3           2.0730     0.0000     1.2000 ca         1 KJU       0.107100
      4 C4           1.3720    -0.0010     2.4050 ca         1 KJU      -0.145400
      5 C5          -0.0130    -0.0000     2.3990 ca         1 KJU      -0.103000
      6 C6          -0.6960    -0.0000     1.1960 ca         1 KJU      -0.036600
      7 Cl7         -2.4330     0.0000     1.1860 cl         1 KJU      -0.017400
      8 N8           2.0840    -0.0030     3.6120 ns         1 KJU      -0.016100
      9 C9           3.3970     0.3130     3.5980 c          1 KJU       0.561500
     10 O10          4.0410     0.2880     4.6270 o          1 KJU      -0.653500
     11 C11          4.0610     0.6960     2.3000 c3         1 KJU       0.151400
     12 O12          3.4330     0.0030     1.2170 os         1 KJU      -0.302900
     13 H1          -0.5400     0.0000    -0.9390 ha         1 KJU       0.119000
     14 H2           1.9260     0.0000    -0.9380 ha         1 KJU       0.122000
     15 H5          -0.5600    -0.0010     3.3350 ha         1 KJU       0.123000
     16 HN8          1.6720    -0.3970     4.4350 hn         1 KJU       0.185500
     17 H11          5.1030     0.4040     2.3420 h1         1 KJU       0.041700
     18 H11A         3.9400     1.7620     2.1480 h1         1 KJU       0.041700
@<TRIPOS>BOND
     1     1     2 ar  
     2     1     6 ar  
     3     1    13 1   
     4     2     3 ar  
     5     2    14 1   
     6     3     4 ar  
     7     3    12 1   
     8     4     5 ar  
     9     4     8 1   
    10     5     6 ar  
    11     5    15 1   
    12     6     7 1   
    13     8     9 1   
    14     8    16 1   
    15     9    10 2   
    16     9    11 1   
    17    11    12 1   
    18    11    17 1   
    19    11    18 1   
@<TRIPOS>SUBSTRUCTURE
     1 KJU         1 TEMP              0 ****  ****    0 ROOT
