@<TRIPOS>MOLECULE
molecule
   18    19     1     0     0
SMALL
bcc


@<TRIPOS>ATOM
      1 C1           0.0000     0.0000     0.0000 ca         1 KJU      -0.118000
      2 C2           1.3830     0.0000     0.0000 ca         1 KJU      -0.113000
      3 C3           2.0730     0.0000     1.2000 ca         1 KJU       0.091100
      4 C4           1.3720    -0.0010     2.4050 ca         1 KJU       0.007600
      5 C5          -0.0130    -0.0000     2.3990 ca         1 KJU      -0.134000
      6 C6          -0.6960    -0.0000     1.1960 ca         1 KJU       0.031400
      7 Cl7         -2.4330     0.0000     1.1860 cl         1 KJU      -0.098400
      8 N8           2.0840    -0.0030     3.6120 ns         1 KJU      -0.462100
      9 C9           3.3970     0.3130     3.5980 c          1 KJU       0.665500
     10 O10          4.0410     0.2880     4.6270 o          1 KJU      -0.611500
     11 C11          4.0610     0.6960     2.3000 c3         1 KJU       0.075400
     12 O12          3.4330     0.0030     1.2170 os         1 KJU      -0.321900
     13 H1          -0.5400     0.0000    -0.9390 ha         1 KJU       0.152000
     14 H2           1.9260     0.0000    -0.9380 ha         1 KJU       0.156000
     15 H5          -0.5600    -0.0010     3.3350 ha         1 KJU       0.153000
     16 HN8          1.6720    -0.3970     4.4350 hn         1 KJU       0.344500
     17 H11          5.1030     0.4040     2.3420 h1         1 KJU       0.090700
     18 H11A         3.9400     1.7620     2.1480 h1         1 KJU       0.090700
@<TRIPOS>BOND
     1     1     2 ar
     2     1     6 ar
     3     2     3 ar
     4     3     4 ar
     5     3    12 1
     6     4     5 ar
     7     4     8 1
     8     5     6 ar
     9     6     7 1
    10     8     9 1
    11     9    10 2
    12     9    11 1
    13    11    12 1
    14     1    13 1
    15     2    14 1
    16     5    15 1
    17     8    16 1
    18    11    17 1
    19    11    18 1
@<TRIPOS>SUBSTRUCTURE
     1 KJU         1 TEMP              0 ****  ****    0 ROOT
