@<TRIPOS>MOLECULE
KJV
   74    78     1     0     0
SMALL
bcc


@<TRIPOS>ATOM
      1 C35        -0.0680    0.2190   -2.4060 c3        1 KJV      0.081100
      2 N34         1.2430    0.2260   -1.7050 n4        1 KJV     -0.679400
      3 C36         1.0530    0.0800   -0.2380 c3        1 KJV      0.081100
      4 C33         2.1420   -0.8470   -2.2530 c3        1 KJV      0.104800
      5 C32         3.6060   -0.6220   -1.9050 c3        1 KJV     -0.102400
      6 C31         4.4620   -1.6870   -2.5630 c3        1 KJV     -0.161400
      7 C29         5.9220   -1.4660   -2.1620 c         1 KJV      0.666100
      8 O30         6.2210   -0.5010   -1.4310 o         1 KJV     -0.602100
      9 N28         6.8220   -2.3800   -2.6550 n         1 KJV     -0.449100
     10 C21         8.2140   -2.4100   -2.4190 ca        1 KJV      0.041600
     11 C22         8.9130   -3.5930   -2.7510 ca        1 KJV     -0.157000
     12 C20         8.9270   -1.3150   -1.8920 ca        1 KJV     -0.140000
     13 C19        10.3050   -1.4140   -1.7090 ca        1 KJV     -0.110000
     14 C18        10.9930   -2.5780   -2.0360 ca        1 KJV     -0.122000
     15 C10        10.2950   -3.6770   -2.5580 ca        1 KJV     -0.008800
     16 C7         10.9890   -4.9020   -2.9010 cc        1 KJV     -0.052400
     17 C1         11.0770   -5.4700   -4.2310 ca        1 KJV     -0.373400
     18 C8         11.6820   -5.7540   -2.0540 cd        1 KJV      0.115900
     19 C11        11.9620   -5.7760   -0.6360 ca        1 KJV     -0.054800
     20 C23        12.9920   -6.5900   -0.1350 ca        1 KJV     -0.098500
     21 C24        13.2620   -6.6130    1.2310 ca        1 KJV     -0.134500
     22 C25        12.5110   -5.8310    2.1090 ca        1 KJV     -0.108000
     23 C26        11.4860   -5.0240    1.6170 ca        1 KJV     -0.134500
     24 C27        11.2080   -4.9950    0.2530 ca        1 KJV     -0.098500
     25 O9         12.2230   -6.8560   -2.7670 os        1 KJV     -0.292400
     26 C2         11.8480   -6.6760   -4.0960 ca        1 KJV      0.611600
     27 N3         12.1770   -7.5200   -5.1040 nb        1 KJV     -0.691000
     28 C4         11.6920   -7.0910   -6.3000 ca        1 KJV      0.679900
     29 N5         10.9680   -5.9800   -6.5900 nb        1 KJV     -0.777000
     30 C6         10.6330   -5.1430   -5.5500 ca        1 KJV      0.714200
     31 N           9.8030   -4.0360   -5.7450 nh        1 KJV     -0.814900
     32 CA          9.5720   -3.5180   -7.0840 c3        1 KJV      0.249800
     33 C          10.7930   -2.8090   -7.7180 c3        1 KJV      0.100400
     34 O          11.3180   -1.8750   -6.7890 oh        1 KJV     -0.616800
     35 C12         8.3740   -2.5970   -7.0920 ca        1 KJV     -0.090300
     36 C13         7.1950   -3.0120   -7.7210 ca        1 KJV     -0.110500
     37 C14         6.0900   -2.1620   -7.7670 ca        1 KJV     -0.140000
     38 C15         6.1550   -0.8980   -7.1790 ca        1 KJV     -0.139000
     39 C16         7.3250   -0.4860   -6.5420 ca        1 KJV     -0.140000
     40 C17         8.4320   -1.3330   -6.4960 ca        1 KJV     -0.110500
     41 H1          0.0900    0.4240   -3.4990 hx        1 KJV      0.107367
     42 H2         -0.5560   -0.7840   -2.2780 hx        1 KJV      0.107367
     43 H3         -0.7280    1.0150   -1.9670 hx        1 KJV      0.107367
     44 H5          0.5430   -0.8960   -0.0190 hx        1 KJV      0.107367
     45 H6          2.0550    0.1030    0.2710 hx        1 KJV      0.107367
     46 H7          0.4200    0.9270    0.1410 hx        1 KJV      0.107367
     47 H8          2.0170   -0.8560   -3.3750 hx        1 KJV      0.102700
     48 H9          1.7880   -1.8360   -1.8450 hx        1 KJV      0.102700
     49 H10         3.9550    0.3890   -2.2520 hc        1 KJV      0.086200
     50 H11         3.7690   -0.6620   -0.7940 hc        1 KJV      0.086200
     51 H12         4.1320   -2.7080   -2.2360 hc        1 KJV      0.077700
     52 H13         4.3710   -1.6290   -3.6790 hc        1 KJV      0.077700
     53 H14         6.4710   -3.1170   -3.2280 hn        1 KJV      0.325500
     54 H15         8.3830   -4.4640   -3.1700 ha        1 KJV      0.148000
     55 H16         8.4100   -0.3820   -1.6170 ha        1 KJV      0.167000
     56 H17        10.8540   -0.5520   -1.2990 ha        1 KJV      0.146000
     57 H18        12.0820   -2.6430   -1.8870 ha        1 KJV      0.154000
     58 H19        13.5820   -7.2110   -0.8280 ha        1 KJV      0.147500
     59 H20        14.0710   -7.2520    1.6160 ha        1 KJV      0.139000
     60 H21        12.7280   -5.8510    3.1880 ha        1 KJV      0.139000
     61 H22        10.8910   -4.4080    2.3080 ha        1 KJV      0.139000
     62 H23        10.3980   -4.3560   -0.1320 ha        1 KJV      0.147500
     63 H24        11.9310   -7.7400   -7.1710 h5        1 KJV      0.063100
     64 H25         9.9330   -3.3180   -5.0570 hn        1 KJV      0.430800
     65 H26         9.3400   -4.3970   -7.7630 h1        1 KJV      0.095700
     66 H27        10.4630   -2.2760   -8.6490 h1        1 KJV      0.046700
     67 H28        11.5740   -3.5720   -7.9810 h1        1 KJV      0.046700
     68 H29        12.1370   -1.5380   -7.1690 ho        1 KJV      0.414000
     69 H30         7.1390   -4.0070   -8.1880 ha        1 KJV      0.151000
     70 H31         5.1730   -2.4860   -8.2800 ha        1 KJV      0.132000
     71 H32         5.2900   -0.2220   -7.2350 ha        1 KJV      0.122000
     72 H33         7.3830    0.5130   -6.0860 ha        1 KJV      0.132000
     73 H34         9.3660   -1.0020   -6.0110 ha        1 KJV      0.151000
     74 H341        1.6990    1.1340   -1.8780 hn        1 KJV      0.454800
@<TRIPOS>BOND
     1    1    2 1
     2    1   41 1
     3    1   42 1
     4    1   43 1
     5    2    3 1
     6    2    4 1
     7    2   74 1
     8    3   44 1
     9    3   45 1
    10    3   46 1
    11    4    5 1
    12    4   47 1
    13    4   48 1
    14    5    6 1
    15    5   49 1
    16    5   50 1
    17    6    7 1
    18    6   51 1
    19    6   52 1
    20    7    8 2
    21    7    9 1
    22    9   10 1
    23    9   53 1
    24   10   11 ar
    25   10   12 ar
    26   11   15 ar
    27   11   54 1
    28   12   13 ar
    29   12   55 1
    30   13   14 ar
    31   13   56 1
    32   14   15 ar
    33   14   57 1
    34   15   16 1
    35   16   17 1
    36   16   18 2
    37   17   26 ar
    38   17   30 ar
    39   18   19 1
    40   18   25 1
    41   19   20 ar
    42   19   24 ar
    43   20   21 ar
    44   20   58 1
    45   21   22 ar
    46   21   59 1
    47   22   23 ar
    48   22   60 1
    49   23   24 ar
    50   23   61 1
    51   24   62 1
    52   25   26 1
    53   26   27 ar
    54   27   28 ar
    55   28   29 ar
    56   28   63 1
    57   29   30 ar
    58   30   31 1
    59   31   32 1
    60   31   64 1
    61   32   33 1
    62   32   35 1
    63   32   65 1
    64   33   34 1
    65   33   66 1
    66   33   67 1
    67   34   68 1
    68   35   36 ar
    69   35   40 ar
    70   36   37 ar
    71   36   69 1
    72   37   38 ar
    73   37   70 1
    74   38   39 ar
    75   38   71 1
    76   39   40 ar
    77   39   72 1
    78   40   73 1
@<TRIPOS>SUBSTRUCTURE
     1 KJV         1 TEMP              0 ****  ****    0 ROOT
