@<TRIPOS>MOLECULE
KJZ
   50    53     1     0     0
SMALL
bcc


@<TRIPOS>ATOM
      1 C            0.0000     0.0000     0.0000 c2         1 KJZ       0.403000
      2 N            0.2000    -0.0090     2.4190 n          1 KJZ       0.189000
      3 O            1.2080     0.0000     0.0000 o          1 KJZ      -0.626000
      4 CA          -0.7530     0.0000     1.3060 c3         1 KJZ      -0.189000
      5 OAB          3.3140    -1.5960     6.0650 o          1 KJZ      -0.399000
      6 OAC          0.2310    -2.2270     2.4640 o          1 KJZ      -0.381000
      7 CAF          0.1770     2.3280     2.5280 c2         1 KJZ      -0.382000
      8 CAG          5.7720    -3.8520     9.4970 ca         1 KJZ      -0.118000
      9 CAH          4.7960    -2.8840     9.3590 ca         1 KJZ      -0.081000
     10 CAI          3.5600     3.7100     6.1690 ca         1 KJZ      -0.106000
     11 CAJ          3.2070     2.4950     5.5870 ca         1 KJZ      -0.102000
     12 CAK          0.3740     5.9820     3.3970 c2         1 KJZ      -0.111000
     13 CAL          5.9530    -4.8040     8.5110 ca         1 KJZ      -0.085000
     14 CAM         -0.0160     4.7910     2.8000 c2         1 KJZ      -0.059000
     15 CAN          3.9900    -2.8670     8.2370 ca         1 KJZ      -0.097000
     16 CAO          2.9580     4.8700     5.7870 ca         1 KJZ      -0.106000
     17 CAP          1.3280     6.0220     4.3660 c2         1 KJZ      -0.099000
     18 CAQ          2.2500     2.4340     4.6180 ca         1 KJZ      -0.129000
     19 CAR          1.9350    -2.6340     4.4560 c3         1 KJZ      -0.114000
     20 CAS          1.6110    -1.1890     4.0720 c3         1 KJZ      -0.121000
     21 NAU          0.6620     1.2010     2.9540 n2         1 KJZ      -0.014000
     22 NAV          3.3460    -3.8140     6.1110 ns         1 KJZ       0.096000
     23 CAX          2.9140    -2.6430     5.6010 c2         1 KJZ       0.208000
     24 CAY          0.6310    -1.1800     2.9280 c2         1 KJZ       0.235000
     25 CAZ          5.1540    -4.7890     7.3820 ca         1 KJZ      -0.150000
     26 CBA          0.5790     3.5900     3.1660 c3         1 KJZ      -0.089000
     27 CBB          4.1630    -3.8240     7.2470 ca         1 KJZ      -0.058000
     28 CBC          1.9710     4.8460     4.7880 ca         1 KJZ      -0.040000
     29 CBD          1.6110     3.6070     4.2020 ca         1 KJZ      -0.047000
     30 OXT         -0.6720     0.0080    -1.1610 o          1 KJZ      -0.626000
     31 HA          -1.3810    -0.8810     1.3610 h1         1 KJZ       0.094000
     32 HAA         -1.3700     0.8880     1.3670 h1         1 KJZ       0.094000
     33 HAF          1.0980     2.8360     2.2690 DU         1 KJZ       0.282000
     34 HAG          6.4010    -3.8640    10.3800 ha         1 KJZ       0.101000
     35 HAH          4.6590    -2.1380    10.1340 ha         1 KJZ       0.103000
     36 HAI          4.3230     3.7320     6.9370 ha         1 KJZ       0.091000
     37 HAJ          3.7000     1.5850     5.9080 ha         1 KJZ       0.112000
     38 HAK         -0.1060     6.9040     3.0920 ha         1 KJZ       0.093000
     39 HAL          6.7190    -5.5610     8.6220 ha         1 KJZ       0.109000
     40 HAM         -0.7790     4.8000     2.0310 ha         1 KJZ       0.123000
     41 HAN          3.2250    -2.1080     8.1290 ha         1 KJZ       0.144000
     42 HAO          3.2430     5.8080     6.2480 ha         1 KJZ       0.096000
     43 HAP          1.6040     6.9720     4.8080 ha         1 KJZ       0.095000
     44 HAQ          1.9840     1.4820     4.1730 ha         1 KJZ       0.170000
     45 HAR          2.3690    -3.1450     3.6060 hc         1 KJZ       0.084500
     46 HARA         1.0250    -3.1400     4.7560 hc         1 KJZ       0.084500
     47 HAS          1.1770    -0.6780     4.9230 hc         1 KJZ       0.089000
     48 HASA         2.5210    -0.6830     3.7730 hc         1 KJZ       0.089000
     49 HNAV         3.0670    -4.6770     5.6880 hn         1 KJZ       0.092000
     50 ClAE         5.3800    -5.9840     6.1420 cl         1 KJZ       0.048000
@<TRIPOS>BOND
     1     1     3 1   
     2     1     4 1   
     3     1    30 1   
     4     2     4 1   
     5     2    21 1   
     6     2    24 1   
     7     4    31 1   
     8     4    32 1   
     9     5    23 1   
    10     6    24 1   
    11     7    21 1   
    12     7    26 1   
    13     7    33 1   
    14     8     9 1   
    15     8    13 1   
    16     8    34 1   
    17     9    15 1   
    18     9    35 1   
    19    10    11 1   
    20    10    16 1   
    21    10    36 1   
    22    11    18 1   
    23    11    37 1   
    24    12    14 1   
    25    12    17 1   
    26    12    38 1   
    27    13    25 1   
    28    13    39 1   
    29    14    26 1   
    30    14    40 1   
    31    15    27 1   
    32    15    41 1   
    33    16    28 1   
    34    16    42 1   
    35    17    28 1   
    36    17    43 1   
    37    18    29 1   
    38    18    44 1   
    39    19    20 1   
    40    19    23 1   
    41    19    45 1   
    42    19    46 1   
    43    20    24 1   
    44    20    47 1   
    45    20    48 1   
    46    22    23 1   
    47    22    27 1   
    48    22    49 1   
    49    25    27 1   
    50    25    50 1   
    51    26    29 1   
    52    26    33 1   
    53    28    29 1   
@<TRIPOS>SUBSTRUCTURE
     1 KJZ         1 TEMP              0 ****  ****    0 ROOT
