@<TRIPOS>MOLECULE
molecule
   50    52     1     0     0
SMALL
bcc


@<TRIPOS>ATOM
      1 C            0.0000     0.0000     0.0000 c          1 KJZ       0.878600
      2 N            0.2000    -0.0090     2.4190 n          1 KJZ      -0.211800
      3 O            1.2080     0.0000     0.0000 o          1 KJZ      -0.831800
      4 CA          -0.7530     0.0000     1.3060 c3         1 KJZ      -0.044000
      5 OAB          3.3140    -1.5960     6.0650 o          1 KJZ      -0.601100
      6 OAC          0.2310    -2.2270     2.4640 o          1 KJZ      -0.610100
      7 CAF          0.1770     2.3280     2.5280 ce         1 KJZ       0.386800
      8 CAG          5.7720    -3.8520     9.4970 ca         1 KJZ      -0.148000
      9 CAH          4.7960    -2.8840     9.3590 ca         1 KJZ      -0.111000
     10 CAI          3.5600     3.7100     6.1690 ca         1 KJZ      -0.126000
     11 CAJ          3.2070     2.4950     5.5870 ca         1 KJZ      -0.141000
     12 CAK          0.3740     5.9820     3.3970 ca         1 KJZ      -0.129000
     13 CAL          5.9530    -4.8040     8.5110 ca         1 KJZ      -0.108000
     14 CAM         -0.0160     4.7910     2.8000 ca         1 KJZ      -0.124000
     15 CAN          3.9900    -2.8670     8.2370 ca         1 KJZ      -0.121000
     16 CAO          2.9580     4.8700     5.7870 ca         1 KJZ      -0.138000
     17 CAP          1.3280     6.0220     4.3660 ca         1 KJZ      -0.126000
     18 CAQ          2.2500     2.4340     4.6180 ca         1 KJZ      -0.105000
     19 CAR          1.9350    -2.6340     4.4560 c3         1 KJZ      -0.143400
     20 CAS          1.6110    -1.1890     4.0720 c3         1 KJZ      -0.137400
     21 NAU          0.6620     1.2010     2.9540 n2         1 KJZ      -0.452300
     22 NAV          3.3460    -3.8140     6.1110 ns         1 KJZ      -0.483100
     23 CAX          2.9140    -2.6430     5.6010 c          1 KJZ       0.658100
     24 CAY          0.6310    -1.1800     2.9280 c          1 KJZ       0.697100
     25 CAZ          5.1540    -4.7890     7.3820 ca         1 KJZ      -0.010600
     26 CBA          0.5790     3.5900     3.1660 ca         1 KJZ      -0.085900
     27 CBB          4.1630    -3.8240     7.2470 ca         1 KJZ       0.079600
     28 CBC          1.9710     4.8460     4.7880 ca         1 KJZ      -0.038000
     29 CBD          1.6110     3.6070     4.2020 ca         1 KJZ      -0.023000
     30 OXT         -0.6720     0.0080    -1.1610 o          1 KJZ      -0.831800
     31 HA          -1.3810    -0.8810     1.3610 h1         1 KJZ       0.057200
     32 HAA         -1.3710     0.8880     1.3670 h1         1 KJZ       0.057200
     33 HAF         -0.5860     2.3310     1.7580 h4         1 KJZ       0.022800
     34 HAG          6.4010    -3.8640    10.3800 ha         1 KJZ       0.129000
     35 HAH          4.6590    -2.1380    10.1340 ha         1 KJZ       0.133000
     36 HAI          4.3230     3.7320     6.9370 ha         1 KJZ       0.116000
     37 HAJ          3.7000     1.5850     5.9080 ha         1 KJZ       0.139000
     38 HAK         -0.1060     6.9040     3.0920 ha         1 KJZ       0.118000
     39 HAL          6.7190    -5.5610     8.6220 ha         1 KJZ       0.139000
     40 HAM         -0.7790     4.8000     2.0310 ha         1 KJZ       0.134000
     41 HAN          3.2250    -2.1080     8.1290 ha         1 KJZ       0.169000
     42 HAO          3.2430     5.8080     6.2480 ha         1 KJZ       0.119000
     43 HAP          1.6040     6.9720     4.8080 ha         1 KJZ       0.119000
     44 HAQ          1.9840     1.4820     4.1730 ha         1 KJZ       0.195000
     45 HAR          2.3690    -3.1450     3.6060 hc         1 KJZ       0.079200
     46 HARA         1.0250    -3.1400     4.7560 hc         1 KJZ       0.079200
     47 HAS          1.1770    -0.6780     4.9230 hc         1 KJZ       0.079200
     48 HASA         2.5210    -0.6830     3.7730 hc         1 KJZ       0.079200
     49 HNAV         3.0670    -4.6770     5.6880 hn         1 KJZ       0.334500
     50 ClAE         5.3800    -5.9840     6.1420 cl         1 KJZ      -0.115400
@<TRIPOS>BOND
     1     4     1 1
     2     3     1 1
     3     1    30 1
     4    24     2 1
     5     2     4 1
     6     2    21 1
     7     4    31 1
     8     4    32 1
     9     5    23 2
    10     6    24 2
    11    50    25 1
    12    21     7 2
    13     7    26 1
    14     7    33 1
    15    13     8 ar
    16     8     9 ar
    17     8    34 1
    18     9    15 ar
    19     9    35 1
    20    11    10 ar
    21    10    16 ar
    22    10    36 1
    23    11    18 ar
    24    11    37 1
    25    14    12 ar
    26    17    12 ar
    27    12    38 1
    28    13    25 ar
    29    13    39 1
    30    26    14 ar
    31    14    40 1
    32    27    15 ar
    33    15    41 1
    34    16    28 ar
    35    16    42 1
    36    28    17 ar
    37    17    43 1
    38    18    29 ar
    39    18    44 1
    40    23    19 1
    41    19    20 1
    42    19    45 1
    43    19    46 1
    44    20    24 1
    45    20    47 1
    46    20    48 1
    47    27    22 1
    48    23    22 1
    49    22    49 1
    50    25    27 ar
    51    29    26 ar
    52    29    28 ar
@<TRIPOS>SUBSTRUCTURE
     1 KJZ         1 TEMP              0 ****  ****    0 ROOT
