@<TRIPOS>MOLECULE
KK1
   52    53     1     0     0
SMALL
bcc


@<TRIPOS>ATOM
      1 C01          0.0000     0.0000     0.0000 c3         1 KK1       0.006900
      2 C02          1.5300     0.0000     0.0000 c3         1 KK1      -0.028400
      3 C03          2.0410     0.0000     1.4420 c3         1 KK1      -0.029400
      4 C04          3.5710     0.0010     1.4410 c3         1 KK1      -0.028400
      5 C05          4.0810     0.0010     2.8830 c3         1 KK1      -0.028400
      6 C06          5.6110     0.0020     2.8820 c3         1 KK1      -0.024400
      7 C07          6.1220     0.0020     4.3240 c3         1 KK1      -0.039400
      8 C08          7.6520     0.0020     4.3230 c3         1 KK1       0.160800
      9 N09          8.1410     0.0030     5.7040 nu         1 KK1      -0.505900
     10 C10          9.5040     0.0030     5.9560 ca         1 KK1       0.593200
     11 C11         10.4170     0.0090     4.9040 ca         1 KK1      -0.505600
     12 C12         11.7770     0.0150     5.2070 cp         1 KK1       0.574800
     13 N13         12.1560     0.0150     6.4850 nb         1 KK1      -0.749000
     14 C14         11.2590     0.0090     7.4580 ca         1 KK1       0.753900
     15 N15         11.6910     0.0100     8.7730 nv         1 KK1      -0.505500
     16 N16          9.9580     0.0030     7.2070 nb         1 KK1      -0.777000
     17 C17         12.7890     0.0210     4.1230 cp         1 KK1      -0.204500
     18 C18         14.1480     0.0260     4.4360 ca         1 KK1      -0.028500
     19 C19         15.0860     0.0320     3.4260 ca         1 KK1      -0.189000
     20 C20         14.6790     0.0320     2.0980 ca         1 KK1       0.162100
     21 O21         15.6060     0.0360     1.1050 os         1 KK1      -0.307900
     22 C22         15.1180     0.0360    -0.2380 c3         1 KK1       0.243700
     23 C23         13.3270     0.0250     1.7830 ca         1 KK1      -0.189000
     24 C24         12.3830     0.0150     2.7890 ca         1 KK1      -0.028500
     25 H1          -0.3610     0.8850     0.5110 hc         1 KK1       0.000367
     26 H2          -0.3610    -0.8840     0.5110 hc         1 KK1       0.000367
     27 H3          -0.3610    -0.0000    -1.0210 hc         1 KK1       0.000367
     28 H4           1.8910     0.8840    -0.5110 hc         1 KK1       0.011700
     29 H5           1.8910    -0.8840    -0.5110 hc         1 KK1       0.011700
     30 H6           1.6800    -0.8850     1.9530 hc         1 KK1       0.014700
     31 H7           1.6790     0.8840     1.9530 hc         1 KK1       0.014700
     32 H8           3.9310     0.8860     0.9300 hc         1 KK1       0.014700
     33 H9           3.9320    -0.8830     0.9300 hc         1 KK1       0.014700
     34 H10          3.7200     0.8850     3.3940 hc         1 KK1       0.015700
     35 H11          3.7210    -0.8840     3.3940 hc         1 KK1       0.015700
     36 H12          5.9720     0.8870     2.3710 hc         1 KK1       0.016700
     37 H13          5.9730    -0.8820     2.3710 hc         1 KK1       0.016700
     38 H14          5.7610    -0.8830     4.8350 hc         1 KK1       0.020700
     39 H15          5.7610     0.8870     4.8350 hc         1 KK1       0.020700
     40 H16          8.0130    -0.8830     3.8130 h1         1 KK1       0.017700
     41 H17          8.0130     0.8860     3.8120 h1         1 KK1       0.017700
     42 H18          7.4910     0.0030     6.4650 hn         1 KK1       0.299800
     43 H19         10.0780     0.0090     3.8750 ha         1 KK1       0.138000
     44 H20         11.0230     0.0060     9.5190 hn         1 KK1       0.272800
     45 H21         12.6700     0.0150     8.9780 hn         1 KK1       0.272800
     46 H22         14.4660     0.0260     5.4720 ha         1 KK1       0.116000
     47 H23         16.1420     0.0350     3.6680 ha         1 KK1       0.118500
     48 H24         15.9540     0.0420    -0.9260 h1         1 KK1      -0.002967
     49 H25         14.5190    -0.8510    -0.4040 h1         1 KK1      -0.002967
     50 H26         14.5100     0.9180    -0.4010 h1         1 KK1      -0.002967
     51 H27         13.0120     0.0220     0.7460 ha         1 KK1       0.118500
     52 H28         11.3290     0.0100     2.5420 ha         1 KK1       0.116000
@<TRIPOS>BOND
     1     1     2 1   
     2     1    25 1   
     3     1    26 1   
     4     1    27 1   
     5     2     3 1   
     6     2    28 1   
     7     2    29 1   
     8     3     4 1   
     9     3    30 1   
    10     3    31 1   
    11     4     5 1   
    12     4    32 1   
    13     4    33 1   
    14     5     6 1   
    15     5    34 1   
    16     5    35 1   
    17     6     7 1   
    18     6    36 1   
    19     6    37 1   
    20     7     8 1   
    21     7    38 1   
    22     7    39 1   
    23     8     9 1   
    24     8    40 1   
    25     8    41 1   
    26     9    10 1   
    27     9    42 1   
    28    10    11 ar  
    29    10    16 ar  
    30    11    12 ar  
    31    11    43 1   
    32    12    13 ar  
    33    12    17 1   
    34    13    14 ar  
    35    14    15 1   
    36    14    16 ar  
    37    15    44 1   
    38    15    45 1   
    39    17    18 ar  
    40    17    24 ar  
    41    18    19 ar  
    42    18    46 1   
    43    19    20 ar  
    44    19    47 1   
    45    20    21 1   
    46    20    23 ar  
    47    21    22 1   
    48    22    48 1   
    49    22    49 1   
    50    22    50 1   
    51    23    24 ar  
    52    23    51 1   
    53    24    52 1   
@<TRIPOS>SUBSTRUCTURE
     1 KK1         1 TEMP              0 ****  ****    0 ROOT
