@<TRIPOS>MOLECULE
molecule
   52    53     1     0     0
SMALL
bcc


@<TRIPOS>ATOM
      1 C01          0.0000     0.0000     0.0000 c3         1 KK1      -0.092100
      2 C02          1.5300     0.0000     0.0000 c3         1 KK1      -0.084400
      3 C03          2.0410     0.0000     1.4420 c3         1 KK1      -0.081400
      4 C04          3.5710     0.0010     1.4410 c3         1 KK1      -0.082400
      5 C05          4.0810     0.0010     2.8830 c3         1 KK1      -0.081400
      6 C06          5.6110     0.0020     2.8820 c3         1 KK1      -0.079400
      7 C07          6.1220     0.0020     4.3240 c3         1 KK1      -0.099400
      8 C08          7.6520     0.0020     4.3230 c3         1 KK1       0.238800
      9 N09          8.1410     0.0030     5.7040 nu         1 KK1      -0.913900
     10 C10          9.5040     0.0030     5.9560 ca         1 KK1       0.769200
     11 C11         10.4170     0.0090     4.9040 ca         1 KK1      -0.499600
     12 C12         11.7770     0.0150     5.2070 cp         1 KK1       0.596800
     13 N13         12.1560     0.0150     6.4850 nb         1 KK1      -0.846000
     14 C14         11.2590     0.0090     7.4580 ca         1 KK1       0.985900
     15 N15         11.6910     0.0100     8.7730 nv         1 KK1      -0.993500
     16 N16          9.9580     0.0030     7.2070 nb         1 KK1      -0.878000
     17 C17         12.7890     0.0210     4.1230 cp         1 KK1      -0.192500
     18 C18         14.1480     0.0260     4.4360 ca         1 KK1      -0.055500
     19 C19         15.0860     0.0320     3.4260 ca         1 KK1      -0.202500
     20 C20         14.6790     0.0320     2.0980 ca         1 KK1       0.154100
     21 O21         15.6060     0.0360     1.1050 os         1 KK1      -0.327900
     22 C22         15.1180     0.0360    -0.2380 c3         1 KK1       0.128700
     23 C23         13.3270     0.0250     1.7830 ca         1 KK1      -0.202500
     24 C24         12.3830     0.0150     2.7890 ca         1 KK1      -0.055500
     25 H1          -0.3610     0.8850     0.5110 hc         1 KK1       0.032700
     26 H2          -0.3610    -0.8840     0.5110 hc         1 KK1       0.032700
     27 H3          -0.3610    -0.0000    -1.0210 hc         1 KK1       0.032700
     28 H4           1.8910     0.8840    -0.5110 hc         1 KK1       0.039700
     29 H5           1.8910    -0.8840    -0.5110 hc         1 KK1       0.039700
     30 H6           1.6800    -0.8850     1.9530 hc         1 KK1       0.041700
     31 H7           1.6790     0.8840     1.9530 hc         1 KK1       0.041700
     32 H8           3.9310     0.8860     0.9300 hc         1 KK1       0.041700
     33 H9           3.9320    -0.8830     0.9300 hc         1 KK1       0.041700
     34 H10          3.7200     0.8850     3.3940 hc         1 KK1       0.043200
     35 H11          3.7210    -0.8840     3.3940 hc         1 KK1       0.043200
     36 H12          5.9720     0.8870     2.3710 hc         1 KK1       0.043700
     37 H13          5.9730    -0.8820     2.3710 hc         1 KK1       0.043700
     38 H14          5.7610    -0.8830     4.8350 hc         1 KK1       0.050700
     39 H15          5.7610     0.8870     4.8350 hc         1 KK1       0.050700
     40 H16          8.0130    -0.8830     3.8130 h1         1 KK1       0.042700
     41 H17          8.0130     0.8860     3.8120 h1         1 KK1       0.042700
     42 H18          7.4910     0.0030     6.4650 hn         1 KK1       0.449800
     43 H19         10.0780     0.0090     3.8750 ha         1 KK1       0.141000
     44 H20         11.0230     0.0060     9.5190 hn         1 KK1       0.448300
     45 H21         12.6700     0.0150     8.9780 hn         1 KK1       0.448300
     46 H22         14.4660     0.0260     5.4720 ha         1 KK1       0.147000
     47 H23         16.1420     0.0350     3.6680 ha         1 KK1       0.140500
     48 H24         15.9540     0.0420    -0.9260 h1         1 KK1       0.041700
     49 H25         14.5190    -0.8510    -0.4040 h1         1 KK1       0.041700
     50 H26         14.5100     0.9180    -0.4010 h1         1 KK1       0.041700
     51 H27         13.0120     0.0220     0.7460 ha         1 KK1       0.140500
     52 H28         11.3290     0.0100     2.5420 ha         1 KK1       0.147000
@<TRIPOS>BOND
     1    22    21 1
     2    21    20 1
     3    20    19 ar
     4    20    23 ar
     5    19    18 ar
     6    23    24 ar
     7    18    17 ar
     8    24    17 ar
     9    17    12 1
    10    12    13 ar
    11    12    11 ar
    12    13    14 ar
    13    11    10 ar
    14    14    15 1
    15    14    16 ar
    16    10    16 ar
    17    10     9 1
    18     9     8 1
    19     8     7 1
    20     7     6 1
    21     6     5 1
    22     5     4 1
    23     4     3 1
    24     3     2 1
    25     2     1 1
    26     1    25 1
    27     1    26 1
    28     1    27 1
    29     2    28 1
    30     2    29 1
    31     3    30 1
    32     3    31 1
    33     4    32 1
    34     4    33 1
    35     5    34 1
    36     5    35 1
    37     6    36 1
    38     6    37 1
    39     7    38 1
    40     7    39 1
    41     8    40 1
    42     8    41 1
    43     9    42 1
    44    11    43 1
    45    15    44 1
    46    15    45 1
    47    18    46 1
    48    19    47 1
    49    22    48 1
    50    22    49 1
    51    22    50 1
    52    23    51 1
    53    24    52 1
@<TRIPOS>SUBSTRUCTURE
     1 KK1         1 TEMP              0 ****  ****    0 ROOT
