@<TRIPOS>MOLECULE
KK2
   38    40     1     0     0
SMALL
bcc


@<TRIPOS>ATOM
      1 C1           0.0000     0.0000     0.0000 c3         1 KK2       0.101300
      2 C2           1.5310     0.0000     0.0000 c3         1 KK2       0.211400
      3 O1           2.0020     0.0000     1.3500 os         1 KK2      -0.408600
      4 C3           1.5490     1.1180     2.1180 c3         1 KK2       0.211400
      5 C4           0.0190     1.1290     2.1390 c3         1 KK2       0.101300
      6 N2          -0.4850     1.1620     0.7590 nh         1 KK2      -0.459300
      7 C6          -1.8690     1.2260     0.7360 ca         1 KK2       0.554200
      8 C5          -2.5390     2.2560     1.3970 ca         1 KK2      -0.407600
      9 N1          -2.5760     0.3120     0.0800 nb         1 KK2      -0.709000
     10 C7          -3.8990     0.3660     0.0530 ca         1 KK2       0.736900
     11 N4          -4.6000    -0.6060    -0.6400 nv         1 KK2      -0.557500
     12 N3          -4.5700     1.3240     0.6720 nb         1 KK2      -0.684000
     13 C8          -3.9300     2.2800     1.3460 cp         1 KK2       0.515800
     14 C9          -4.6900     3.3530     2.0340 cp         1 KK2      -0.126500
     15 C10         -6.0820     3.3690     1.9780 ca         1 KK2      -0.082000
     16 C11         -6.7830     4.3710     2.6180 ca         1 KK2      -0.050000
     17 C12         -6.1070     5.3560     3.3150 ca         1 KK2      -0.202300
     18 C13         -6.8780     6.4470     4.0130 c3         1 KK2       0.639200
     19 F1          -8.0720     6.6890     3.3230 f          1 KK2      -0.207967
     20 F2          -7.1700     6.0480     5.3220 f          1 KK2      -0.207967
     21 F3          -6.1110     7.6160     4.0410 f          1 KK2      -0.207967
     22 C14         -4.7250     5.3450     3.3730 ca         1 KK2      -0.050000
     23 C15         -4.0130     4.3450     2.7410 ca         1 KK2      -0.082000
     24 H1          -0.3600    -0.9100     0.4640 h1         1 KK2       0.032200
     25 H2          -0.3600     0.0590    -1.0200 h1         1 KK2       0.032200
     26 H3           1.8920     0.8860    -0.5080 h1         1 KK2       0.014700
     27 H4           1.8920    -0.8860    -0.5080 h1         1 KK2       0.014700
     28 H5           1.9100     2.0350     1.6670 h1         1 KK2       0.014700
     29 H6           1.9230     1.0350     3.1310 h1         1 KK2       0.014700
     30 H7          -0.3410     0.2350     2.6330 h1         1 KK2       0.032200
     31 H8          -0.3280     2.0070     2.6710 h1         1 KK2       0.032200
     32 H9          -1.9910     3.0190     1.9370 ha         1 KK2       0.140000
     33 H10         -5.3770    -1.0660    -0.2090 hn         1 KK2       0.277800
     34 H11         -4.3380    -0.8380    -1.5780 hn         1 KK2       0.277800
     35 H12         -6.6130     2.5980     1.4320 ha         1 KK2       0.125000
     36 H13         -7.8650     4.3850     2.5760 ha         1 KK2       0.118500
     37 H14         -4.2010     6.1170     3.9220 ha         1 KK2       0.118500
     38 H15         -2.9310     4.3370     2.7870 ha         1 KK2       0.125000
@<TRIPOS>BOND
     1     1     2 1   
     2     1     6 1   
     3     1    24 1   
     4     1    25 1   
     5     2     3 1   
     6     2    26 1   
     7     2    27 1   
     8     3     4 1   
     9     4     5 1   
    10     4    28 1   
    11     4    29 1   
    12     5     6 1   
    13     5    30 1   
    14     5    31 1   
    15     6     7 1   
    16     7     8 ar  
    17     7     9 ar  
    18     8    13 ar  
    19     8    32 1   
    20     9    10 ar  
    21    10    11 1   
    22    10    12 ar  
    23    11    33 1   
    24    11    34 1   
    25    12    13 ar  
    26    13    14 1   
    27    14    15 ar  
    28    14    23 ar  
    29    15    16 ar  
    30    15    35 1   
    31    16    17 ar  
    32    16    36 1   
    33    17    18 1   
    34    17    22 ar  
    35    18    19 1   
    36    18    20 1   
    37    18    21 1   
    38    22    23 ar  
    39    22    37 1   
    40    23    38 1   
@<TRIPOS>SUBSTRUCTURE
     1 KK2         1 TEMP              0 ****  ****    0 ROOT
