@<TRIPOS>MOLECULE
molecule
   38    40     1     0     0
SMALL
bcc


@<TRIPOS>ATOM
      1 C1           0.0000     0.0000     0.0000 c3         1 KK2       0.132800
      2 C2           1.5310     0.0000     0.0000 c3         1 KK2       0.134900
      3 O1           2.0020     0.0000     1.3500 os         1 KK2      -0.421600
      4 C3           1.5490     1.1180     2.1180 c3         1 KK2       0.134900
      5 C4           0.0190     1.1290     2.1390 c3         1 KK2       0.132800
      6 N2          -0.4850     1.1620     0.7590 nh         1 KK2      -0.696300
      7 C6          -1.8690     1.2260     0.7360 ca         1 KK2       0.677200
      8 C5          -2.5390     2.2560     1.3970 ca         1 KK2      -0.420600
      9 N1          -2.5760     0.3120     0.0800 nb         1 KK2      -0.821000
     10 C7          -3.8990     0.3660     0.0530 ca         1 KK2       0.965900
     11 N4          -4.6000    -0.6060    -0.6400 nv         1 KK2      -1.023500
     12 N3          -4.5700     1.3240     0.6720 nb         1 KK2      -0.795000
     13 C8          -3.9300     2.2800     1.3460 cp         1 KK2       0.551800
     14 C9          -4.6900     3.3530     2.0340 cp         1 KK2      -0.124500
     15 C10         -6.0820     3.3690     1.9780 ca         1 KK2      -0.101500
     16 C11         -6.7830     4.3710     2.6180 ca         1 KK2      -0.090500
     17 C12         -6.1070     5.3560     3.3150 ca         1 KK2      -0.169300
     18 C13         -6.8780     6.4470     4.0130 c3         1 KK2       0.672200
     19 F1          -8.0720     6.6890     3.3230 f          1 KK2      -0.222967
     20 F2          -7.1700     6.0480     5.3220 f          1 KK2      -0.222967
     21 F3          -6.1110     7.6160     4.0410 f          1 KK2      -0.222967
     22 C14         -4.7250     5.3450     3.3730 ca         1 KK2      -0.090500
     23 C15         -4.0130     4.3450     2.7410 ca         1 KK2      -0.101500
     24 H1          -0.3600    -0.9100     0.4640 h1         1 KK2       0.060200
     25 H2          -0.3600     0.0590    -1.0200 h1         1 KK2       0.060200
     26 H3           1.8920     0.8860    -0.5080 h1         1 KK2       0.056950
     27 H4           1.8920    -0.8860    -0.5080 h1         1 KK2       0.056950
     28 H5           1.9100     2.0350     1.6670 h1         1 KK2       0.056950
     29 H6           1.9230     1.0350     3.1310 h1         1 KK2       0.056950
     30 H7          -0.3410     0.2350     2.6330 h1         1 KK2       0.060200
     31 H8          -0.3280     2.0070     2.6710 h1         1 KK2       0.060200
     32 H9          -1.9910     3.0190     1.9370 ha         1 KK2       0.151000
     33 H10         -5.3770    -1.0660    -0.2090 hn         1 KK2       0.448800
     34 H11         -4.3380    -0.8380    -1.5780 hn         1 KK2       0.448800
     35 H12         -6.6130     2.5980     1.4320 ha         1 KK2       0.154000
     36 H13         -7.8650     4.3850     2.5760 ha         1 KK2       0.149500
     37 H14         -4.2010     6.1170     3.9220 ha         1 KK2       0.149500
     38 H15         -2.9310     4.3370     2.7870 ha         1 KK2       0.154000
@<TRIPOS>BOND
     1    23    22 ar
     2    23    14 ar
     3    22    17 ar
     4     1     6 1
     5     1     2 1
     6    21    18 1
     7     6     7 1
     8     6     5 1
     9     9     7 ar
    10     9    10 ar
    11     7     8 ar
    12    11    10 1
    13    10    12 ar
    14     5     4 1
    15     8    13 ar
    16    12    13 ar
    17    13    14 1
    18    14    15 ar
    19    17    18 1
    20    17    16 ar
    21    18    20 1
    22    18    19 1
    23     2     3 1
    24     3     4 1
    25    15    16 ar
    26     1    24 1
    27     1    25 1
    28     2    26 1
    29     2    27 1
    30     4    28 1
    31     4    29 1
    32     5    30 1
    33     5    31 1
    34     8    32 1
    35    11    33 1
    36    11    34 1
    37    15    35 1
    38    16    36 1
    39    22    37 1
    40    23    38 1
@<TRIPOS>SUBSTRUCTURE
     1 KK2         1 TEMP              0 ****  ****    0 ROOT
