@<TRIPOS>MOLECULE
molecule
   43    45     1     0     0
SMALL
bcc


@<TRIPOS>ATOM
      1 C1           0.0000     0.0000     0.0000 c3         1 KK3       0.170800
      2 C3           1.5300     0.0000     0.0000 c3         1 KK3      -0.078900
      3 C7           2.0350     0.0000     1.4450 c3         1 KK3      -0.077700
      4 C8           1.5700     1.2770     2.1490 c3         1 KK3      -0.095100
      5 C9           1.4710    -1.2220     2.1750 c3         1 KK3      -0.078900
      6 C10         -0.0580    -1.1860     2.1120 c3         1 KK3       0.170800
      7 N2          -0.4920    -1.1890     0.7090 nh         1 KK3      -0.696300
      8 C4          -1.8700    -1.2890     0.6150 ca         1 KK3       0.663200
      9 C5          -2.5440    -2.3480     1.2210 ca         1 KK3      -0.397600
     10 N3          -2.5680    -0.3720    -0.0480 nb         1 KK3      -0.798000
     11 C2          -3.8870    -0.4590    -0.1430 ca         1 KK3       0.959900
     12 N4          -4.5780     0.5140    -0.8430 nv         1 KK3      -1.060500
     13 N1          -4.5620    -1.4540     0.4130 nb         1 KK3      -0.771000
     14 C6          -3.9310    -2.4060     1.1000 cp         1 KK3       0.533800
     15 C11         -4.6940    -3.5180     1.7200 cp         1 KK3      -0.124500
     16 C12         -6.0800    -3.5720     1.5880 ca         1 KK3      -0.102500
     17 C13         -6.7850    -4.6080     2.1680 ca         1 KK3      -0.090000
     18 C14         -6.1180    -5.5900     2.8770 ca         1 KK3      -0.169300
     19 C15         -6.8930    -6.7180     3.5080 c3         1 KK3       0.672200
     20 F1          -8.1720    -6.2680     3.8530 f          1 KK3      -0.222967
     21 F2          -7.0010    -7.7760     2.5970 f          1 KK3      -0.222967
     22 F3          -6.2270    -7.1570     4.6570 f          1 KK3      -0.222967
     23 C16         -4.7420    -5.5400     3.0110 ca         1 KK3      -0.090000
     24 C17         -4.0270    -4.5130     2.4310 ca         1 KK3      -0.102500
     25 H1          -0.3600     0.8910     0.5000 h1         1 KK3       0.051700
     26 H2          -0.3590    -0.0170    -1.0220 h1         1 KK3       0.051700
     27 H3           1.8900     0.8860    -0.5080 hc         1 KK3       0.052700
     28 H4           1.8900    -0.8860    -0.5080 hc         1 KK3       0.052700
     29 H5           3.1170    -0.0470     1.4480 hc         1 KK3       0.053700
     30 H6           1.9120     2.1410     1.5930 hc         1 KK3       0.036367
     31 H7           1.9810     1.3070     3.1510 hc         1 KK3       0.036367
     32 H8           0.4880     1.2860     2.2020 hc         1 KK3       0.036367
     33 H9           1.8300    -2.1250     1.6970 hc         1 KK3       0.052700
     34 H10          1.7900    -1.2030     3.2100 hc         1 KK3       0.052700
     35 H11         -0.4590    -2.0590     2.6140 h1         1 KK3       0.051700
     36 H12         -0.4170    -0.2870     2.5980 h1         1 KK3       0.051700
     37 H13         -2.0030    -3.1080     1.7720 ha         1 KK3       0.152000
     38 H14         -4.7550     0.3960    -1.8220 hn         1 KK3       0.445800
     39 H15         -4.9140     1.3290    -0.3690 hn         1 KK3       0.445800
     40 H16         -6.6040    -2.8030     1.0330 ha         1 KK3       0.154500
     41 H17         -7.8630    -4.6520     2.0670 ha         1 KK3       0.149500
     42 H18         -4.2250    -6.3130     3.5660 ha         1 KK3       0.149500
     43 H19         -2.9490    -4.4750     2.5370 ha         1 KK3       0.154500
@<TRIPOS>BOND
     1    12    11 1
     2    11    10 ar
     3    11    13 ar
     4    10     8 ar
     5     1     2 1
     6     1     7 1
     7    13    14 ar
     8     2     3 1
     9     8     7 1
    10     8     9 ar
    11     7     6 1
    12    14     9 ar
    13    14    15 1
    14     3     4 1
    15     3     5 1
    16     6     5 1
    17    15    16 ar
    18    15    24 ar
    19    16    17 ar
    20    24    23 ar
    21    17    18 ar
    22    23    18 ar
    23    18    19 1
    24    22    19 1
    25    19    21 1
    26    19    20 1
    27     1    25 1
    28     1    26 1
    29     2    27 1
    30     2    28 1
    31     3    29 1
    32     4    30 1
    33     4    31 1
    34     4    32 1
    35     5    33 1
    36     5    34 1
    37     6    35 1
    38     6    36 1
    39     9    37 1
    40    12    38 1
    41    12    39 1
    42    16    40 1
    43    17    41 1
    44    23    42 1
    45    24    43 1
@<TRIPOS>SUBSTRUCTURE
     1 KK3         1 TEMP              0 ****  ****    0 ROOT
