@<TRIPOS>MOLECULE
KK4
   65    70     1     0     0
SMALL
bcc


@<TRIPOS>ATOM
      1 O3           0.0000     0.0000     0.0000 o          1 KK4      -0.646500
      2 C29          1.2160     0.0000     0.0000 c          1 KK4       0.656600
      3 O2           2.0200     0.0000     1.0750 os         1 KK4      -0.027600
      4 N3           3.1850     0.0010     0.7460 nc         1 KK4      -0.340200
      5 N4           2.0270    -0.0060    -1.0850 ns         1 KK4      -0.056400
      6 C28          3.3130     0.0010    -0.5540 cd         1 KK4       0.195200
      7 C27          4.5690     0.0020    -1.3060 cf         1 KK4      -0.159800
      8 C30          4.9340     1.1880    -2.1630 c3         1 KK4       0.057100
      9 C1           5.4060    -1.0670    -1.2340 ce         1 KK4       0.054600
     10 C22          6.7320    -0.9960    -1.8780 ca         1 KK4      -0.094800
     11 C23          6.8770    -0.7690    -3.2430 ca         1 KK4      -0.074000
     12 C24          8.1480    -0.6880    -3.7800 ca         1 KK4      -0.113000
     13 C25          9.2580    -0.8290    -2.9650 ca         1 KK4      -0.078000
     14 C26          9.1160    -1.0630    -1.6090 ca         1 KK4      -0.120000
     15 C21          7.8440    -1.1530    -1.0590 ca         1 KK4       0.143100
     16 O1           7.6750    -1.4250     0.2500 os         1 KK4      -0.322900
     17 C20          7.2320    -2.6910     0.6700 c3         1 KK4       0.291700
     18 C3           5.7960    -3.0000     0.3400 ca         1 KK4      -0.104300
     19 C2           4.9770    -2.2790    -0.5070 ca         1 KK4      -0.008800
     20 C19          3.6520    -2.6960    -0.7140 ca         1 KK4      -0.113000
     21 C18          3.1600    -3.8130    -0.0780 ca         1 KK4      -0.075000
     22 C5           3.9820    -4.5290     0.7740 ca         1 KK4      -0.119300
     23 C4           5.2750    -4.1310     0.9710 ca         1 KK4      -0.090000
     24 C6           3.4540    -5.7520     1.4780 c3         1 KK4       0.023600
     25 N1           3.6940    -6.9350     0.6480 na         1 KK4       0.312700
     26 C14          4.8000    -7.7280     0.6750 cc         1 KK4       0.218800
     27 C15          5.9880    -7.5210     1.5790 c3         1 KK4      -0.029700
     28 C16          5.7700    -8.2820     2.8890 c3         1 KK4      -0.029400
     29 C17          6.9760    -8.0730     3.8060 c3         1 KK4       0.005900
     30 N2           4.6820    -8.6890    -0.1930 nd         1 KK4      -0.514100
     31 C8           3.4920    -8.5800    -0.8370 ca         1 KK4       0.064400
     32 C7           2.8390    -7.4560    -0.3020 ca         1 KK4      -0.252200
     33 C12          1.5850    -7.0950    -0.7760 ca         1 KK4      -0.102000
     34 C11          0.9900    -7.8440    -1.7690 ca         1 KK4      -0.084000
     35 C10          1.6340    -8.9530    -2.2960 ca         1 KK4      -0.127000
     36 C9           2.8660    -9.3260    -1.8390 ca         1 KK4      -0.022300
     37 C13          3.5540   -10.5330    -2.4230 c3         1 KK4       0.064200
     38 H1           1.7620    -0.0070    -2.0500 hn         1 KK4       0.219500
     39 H2           4.8200     0.9270    -3.2080 hc         1 KK4       0.016700
     40 H3           5.9620     1.4690    -1.9710 hc         1 KK4       0.016700
     41 H4           4.2810     2.0190    -1.9250 hc         1 KK4       0.016700
     42 H5           6.0060    -0.6590    -3.8760 ha         1 KK4       0.111000
     43 H6           8.2760    -0.5060    -4.8400 ha         1 KK4       0.107000
     44 H7          10.2500    -0.7640    -3.3950 ha         1 KK4       0.105000
     45 H8           9.9910    -1.1720    -0.9800 ha         1 KK4       0.117000
     46 H9           7.3400    -2.7360     1.7470 h1         1 KK4       0.020700
     47 H10          7.8500    -3.4350     0.1820 h1         1 KK4       0.020700
     48 H11          3.0110    -2.1340    -1.3820 ha         1 KK4       0.108000
     49 H12          2.1340    -4.1250    -0.2380 ha         1 KK4       0.114000
     50 H13          5.9080    -4.7010     1.6410 ha         1 KK4       0.114000
     51 H14          3.9610    -5.8690     2.4280 h1         1 KK4       0.042200
     52 H15          2.3900    -5.6400     1.6480 h1         1 KK4       0.042200
     53 H16          6.1020    -6.4650     1.7890 hc         1 KK4       0.029200
     54 H17          6.8810    -7.8910     1.0910 hc         1 KK4       0.029200
     55 H18          4.8760    -7.9120     3.3770 hc         1 KK4       0.019200
     56 H19          5.6560    -9.3380     2.6780 hc         1 KK4       0.019200
     57 H20          6.8810    -8.7090     4.6780 hc         1 KK4       0.002033
     58 H21          7.0160    -7.0360     4.1190 hc         1 KK4       0.002033
     59 H22          7.8840    -8.3250     3.2720 hc         1 KK4       0.002033
     60 H23          1.0780    -6.2300    -0.3680 ha         1 KK4       0.100000
     61 H24          0.0130    -7.5610    -2.1430 ha         1 KK4       0.102000
     62 H25          1.1540    -9.5320    -3.0760 ha         1 KK4       0.108000
     63 H26          2.9650   -10.9220    -3.2440 hc         1 KK4       0.010367
     64 H27          4.5350   -10.2500    -2.7850 hc         1 KK4       0.010367
     65 H28          3.6570   -11.2950    -1.6590 hc         1 KK4       0.010367
@<TRIPOS>BOND
     1     1     2 2   
     2     2     3 1   
     3     2     5 1   
     4     3     4 1   
     5     4     6 2   
     6     5     6 1   
     7     5    38 1   
     8     6     7 1   
     9     7     8 1   
    10     7     9 2   
    11     8    39 1   
    12     8    40 1   
    13     8    41 1   
    14     9    10 1   
    15     9    19 1   
    16    10    11 ar  
    17    10    15 ar  
    18    11    12 ar  
    19    11    42 1   
    20    12    13 ar  
    21    12    43 1   
    22    13    14 ar  
    23    13    44 1   
    24    14    15 ar  
    25    14    45 1   
    26    15    16 1   
    27    16    17 1   
    28    17    18 1   
    29    17    46 1   
    30    17    47 1   
    31    18    19 ar  
    32    18    23 ar  
    33    19    20 ar  
    34    20    21 ar  
    35    20    48 1   
    36    21    22 ar  
    37    21    49 1   
    38    22    23 ar  
    39    22    24 1   
    40    23    50 1   
    41    24    25 1   
    42    24    51 1   
    43    24    52 1   
    44    25    26 1   
    45    25    32 1   
    46    26    27 1   
    47    26    30 2   
    48    27    28 1   
    49    27    53 1   
    50    27    54 1   
    51    28    29 1   
    52    28    55 1   
    53    28    56 1   
    54    29    57 1   
    55    29    58 1   
    56    29    59 1   
    57    30    31 1   
    58    31    32 ar  
    59    31    36 ar  
    60    32    33 ar  
    61    33    34 ar  
    62    33    60 1   
    63    34    35 ar  
    64    34    61 1   
    65    35    36 ar  
    66    35    62 1   
    67    36    37 1   
    68    37    63 1   
    69    37    64 1   
    70    37    65 1   
@<TRIPOS>SUBSTRUCTURE
     1 KK4         1 TEMP              0 ****  ****    0 ROOT
