@<TRIPOS>MOLECULE
molecule
   65    70     1     0     0
SMALL
bcc


@<TRIPOS>ATOM
      1 O3           0.0000     0.0000     0.0000 o          1 KK4      -0.593500
      2 C29          1.2160     0.0000     0.0000 c          1 KK4       0.743600
      3 O2           2.0200     0.0000     1.0750 os         1 KK4      -0.026600
      4 N3           3.1850     0.0010     0.7460 nc         1 KK4      -0.400200
      5 N4           2.0270    -0.0060    -1.0850 ns         1 KK4      -0.504400
      6 C28          3.3130     0.0010    -0.5540 cc         1 KK4       0.370200
      7 C27          4.5690     0.0020    -1.3060 ce         1 KK4      -0.153800
      8 C30          4.9340     1.1880    -2.1630 c3         1 KK4      -0.044900
      9 C1           5.4060    -1.0670    -1.2340 cf         1 KK4       0.053600
     10 C22          6.7320    -0.9960    -1.8780 ca         1 KK4      -0.094800
     11 C23          6.8770    -0.7690    -3.2430 ca         1 KK4      -0.097000
     12 C24          8.1480    -0.6880    -3.7800 ca         1 KK4      -0.138000
     13 C25          9.2580    -0.8290    -2.9650 ca         1 KK4      -0.107000
     14 C26          9.1160    -1.0630    -1.6090 ca         1 KK4      -0.142000
     15 C21          7.8440    -1.1530    -1.0590 ca         1 KK4       0.139100
     16 O1           7.6750    -1.4250     0.2500 os         1 KK4      -0.341900
     17 C20          7.2320    -2.6910     0.6700 c3         1 KK4       0.207700
     18 C3           5.7960    -3.0000     0.3400 ca         1 KK4      -0.094300
     19 C2           4.9770    -2.2790    -0.5070 ca         1 KK4      -0.026800
     20 C19          3.6520    -2.6960    -0.7140 ca         1 KK4      -0.120000
     21 C18          3.1600    -3.8130    -0.0780 ca         1 KK4      -0.101000
     22 C5           3.9820    -4.5290     0.7740 ca         1 KK4      -0.103300
     23 C4           5.2750    -4.1310     0.9710 ca         1 KK4      -0.115000
     24 C6           3.4540    -5.7520     1.4780 c3         1 KK4       0.097600
     25 N1           3.6940    -6.9350     0.6480 na         1 KK4      -0.151300
     26 C14          4.8000    -7.7280     0.6750 cd         1 KK4       0.423800
     27 C15          5.9880    -7.5210     1.5790 c3         1 KK4      -0.084700
     28 C16          5.7700    -8.2820     2.8890 c3         1 KK4      -0.084400
     29 C17          6.9760    -8.0730     3.8060 c3         1 KK4      -0.094100
     30 N2           4.6820    -8.6890    -0.1930 nc         1 KK4      -0.600100
     31 C8           3.4920    -8.5800    -0.8370 ca         1 KK4       0.092400
     32 C7           2.8390    -7.4560    -0.3020 ca         1 KK4      -0.085200
     33 C12          1.5850    -7.0950    -0.7760 ca         1 KK4      -0.136000
     34 C11          0.9900    -7.8440    -1.7690 ca         1 KK4      -0.110000
     35 C10          1.6340    -8.9530    -2.2960 ca         1 KK4      -0.150000
     36 C9           2.8660    -9.3260    -1.8390 ca         1 KK4      -0.021300
     37 C13          3.5540   -10.5330    -2.4230 c3         1 KK4      -0.042800
     38 H1           1.7620    -0.0070    -2.0500 hn         1 KK4       0.381500
     39 H2           4.8200     0.9270    -3.2080 hc         1 KK4       0.053033
     40 H3           5.9620     1.4690    -1.9710 hc         1 KK4       0.053033
     41 H4           4.2810     2.0190    -1.9250 hc         1 KK4       0.053033
     42 H5           6.0060    -0.6590    -3.8760 ha         1 KK4       0.138000
     43 H6           8.2760    -0.5060    -4.8400 ha         1 KK4       0.136000
     44 H7          10.2500    -0.7640    -3.3950 ha         1 KK4       0.136000
     45 H8           9.9910    -1.1720    -0.9800 ha         1 KK4       0.147000
     46 H9           7.3400    -2.7360     1.7470 h1         1 KK4       0.064700
     47 H10          7.8500    -3.4350     0.1820 h1         1 KK4       0.064700
     48 H11          3.0110    -2.1340    -1.3820 ha         1 KK4       0.135000
     49 H12          2.1340    -4.1250    -0.2380 ha         1 KK4       0.140000
     50 H13          5.9080    -4.7010     1.6410 ha         1 KK4       0.132000
     51 H14          3.9610    -5.8690     2.4280 h1         1 KK4       0.070700
     52 H15          2.3900    -5.6400     1.6480 h1         1 KK4       0.070700
     53 H16          6.1020    -6.4650     1.7890 hc         1 KK4       0.062200
     54 H17          6.8810    -7.8910     1.0910 hc         1 KK4       0.062200
     55 H18          4.8760    -7.9120     3.3770 hc         1 KK4       0.051700
     56 H19          5.6560    -9.3380     2.6780 hc         1 KK4       0.051700
     57 H20          6.8810    -8.7090     4.6780 hc         1 KK4       0.035700
     58 H21          7.0160    -7.0360     4.1190 hc         1 KK4       0.035700
     59 H22          7.8840    -8.3250     3.2720 hc         1 KK4       0.035700
     60 H23          1.0780    -6.2300    -0.3680 ha         1 KK4       0.123000
     61 H24          0.0130    -7.5610    -2.1430 ha         1 KK4       0.131000
     62 H25          1.1540    -9.5320    -3.0760 ha         1 KK4       0.133000
     63 H26          2.9650   -10.9220    -3.2440 hc         1 KK4       0.046367
     64 H27          4.5350   -10.2500    -2.7850 hc         1 KK4       0.046367
     65 H28          3.6570   -11.2950    -1.6590 hc         1 KK4       0.046367
@<TRIPOS>BOND
     1    12    13 ar
     2    12    11 ar
     3    13    14 ar
     4    11    10 ar
     5    14    15 ar
     6    10    15 ar
     7    10     9 1
     8     8     7 1
     9    34    35 ar
    10    34    33 ar
    11    35    36 ar
    12    15    16 1
    13     7     9 2
    14     7     6 1
    15     9    19 1
    16     4     6 2
    17     4     3 1
    18    20    19 ar
    19    20    21 ar
    20    33    32 ar
    21    36    37 1
    22    36    31 ar
    23     6     5 1
    24    19    18 ar
    25    21    22 ar
    26     3     2 1
    27    16    17 1
    28    32    31 ar
    29    32    25 1
    30    31    30 1
    31    18    17 1
    32    18    23 ar
    33    22    23 ar
    34    22    24 1
    35     5     2 1
    36     2     1 2
    37    25    24 1
    38    25    26 1
    39    30    26 2
    40    26    27 1
    41    29    28 1
    42    27    28 1
    43     5    38 1
    44     8    39 1
    45     8    40 1
    46     8    41 1
    47    11    42 1
    48    12    43 1
    49    13    44 1
    50    14    45 1
    51    17    46 1
    52    17    47 1
    53    20    48 1
    54    21    49 1
    55    23    50 1
    56    24    51 1
    57    24    52 1
    58    27    53 1
    59    27    54 1
    60    28    55 1
    61    28    56 1
    62    29    57 1
    63    29    58 1
    64    29    59 1
    65    33    60 1
    66    34    61 1
    67    35    62 1
    68    37    63 1
    69    37    64 1
    70    37    65 1
@<TRIPOS>SUBSTRUCTURE
     1 KK4         1 TEMP              0 ****  ****    0 ROOT
