@<TRIPOS>MOLECULE
molecule
   34    36     1     0     0
SMALL
bcc


@<TRIPOS>ATOM
      1 C01          0.0000     0.0000     0.0000 ca         1 KK7       0.413200
      2 C02          1.3860     0.0000     0.0000 ca         1 KK7      -0.231300
      3 N03         -0.6750    -0.0000     1.1290 nb         1 KK7      -0.690000
      4 C04         -0.0620     0.0000     2.3060 ca         1 KK7       0.367800
      5 C05          1.3290     0.0000     2.3820 ca         1 KK7      -0.183300
      6 C06          2.0650     0.0000     1.2070 ca         1 KK7      -0.102000
      7 C07         -0.8650    -0.0010     3.5510 c          1 KK7       0.574600
      8 N08         -2.2100    -0.0010     3.4860 ns         1 KK7      -0.461100
      9 C09         -2.9670    -0.1000     4.6580 ca         1 KK7       0.055600
     10 C10         -2.5210     0.5010     5.8250 ca         1 KK7      -0.089000
     11 C11         -3.2810     0.3990     6.9900 ca         1 KK7      -0.099500
     12 C12         -4.4840    -0.3060     6.9740 ca         1 KK7      -0.153000
     13 C13         -4.9200    -0.9010     5.8080 ca         1 KK7      -0.113000
     14 C14         -4.1700    -0.7960     4.6510 ca         1 KK7      -0.150000
     15 O15         -0.3080    -0.0010     4.6320 o          1 KK7      -0.581100
     16 C16         -2.8100     1.0390     8.2400 cc         1 KK7       0.417000
     17 N17         -3.5690     1.3250     9.3410 na         1 KK7      -0.329700
     18 C18         -2.7200     1.9010    10.2360 cc         1 KK7       0.350400
     19 N19         -1.5380     1.9450     9.6810 nd         1 KK7      -0.354000
     20 N20         -1.5850     1.4320     8.5030 nd         1 KK7      -0.335000
     21 C21         -4.9990     1.0660     9.5230 c3         1 KK7       0.031600
     22 H1          -0.5350    -0.0000    -0.9420 h4         1 KK7       0.026100
     23 H2           1.9330    -0.0000    -0.9350 ha         1 KK7       0.142000
     24 H3           1.8270     0.0000     3.3440 ha         1 KK7       0.169000
     25 H4           3.1480    -0.0000     1.2330 ha         1 KK7       0.146000
     26 H5          -2.6680     0.1010     2.6020 hn         1 KK7       0.345500
     27 H6          -1.5850     1.0480     5.8320 ha         1 KK7       0.190000
     28 H7          -5.0760    -0.3880     7.8770 ha         1 KK7       0.129000
     29 H8          -5.8560    -1.4460     5.7970 ha         1 KK7       0.133000
     30 H9          -4.5180    -1.2660     3.7380 ha         1 KK7       0.135000
     31 H10         -2.9780     2.2600    11.2250 h5         1 KK7       0.071100
     32 H11         -5.3490     1.5790    10.4100 h1         1 KK7       0.058033
     33 H12         -5.1610     0.0000     9.6330 h1         1 KK7       0.058033
     34 H13         -5.5440     1.4260     8.6580 h1         1 KK7       0.058033
@<TRIPOS>BOND
     1     1     3 ar
     2     1     2 ar
     3     3     4 ar
     4     2     6 ar
     5    15     7 2
     6     4     7 1
     7     4     5 ar
     8     6     5 ar
     9     7     8 1
    10     8     9 1
    11    14     9 ar
    12    14    13 ar
    13     9    10 ar
    14    13    12 ar
    15    10    11 ar
    16    12    11 ar
    17    11    16 1
    18    16    17 1
    19    16    20 2
    20    21    17 1
    21    17    18 1
    22    20    19 1
    23    18    19 2
    24     1    22 1
    25     2    23 1
    26     5    24 1
    27     6    25 1
    28     8    26 1
    29    10    27 1
    30    12    28 1
    31    13    29 1
    32    14    30 1
    33    18    31 1
    34    21    32 1
    35    21    33 1
    36    21    34 1
@<TRIPOS>SUBSTRUCTURE
     1 KK7         1 TEMP              0 ****  ****    0 ROOT
