@<TRIPOS>MOLECULE
KK8
   47    51     1     0     0
SMALL
bcc


@<TRIPOS>ATOM
      1 N01          0.0000     0.0000     0.0000 ns         1 KK8      -0.015100
      2 C02          1.3990     0.0000     0.0000 ca         1 KK8      -0.090400
      3 C03          2.0910     0.0000     1.2010 ca         1 KK8      -0.069000
      4 C04          3.4850    -0.0000     1.1960 ca         1 KK8      -0.085500
      5 C05          4.1740     0.0000    -0.0180 ca         1 KK8      -0.149000
      6 C06          3.4760     0.0010    -1.2080 ca         1 KK8      -0.080000
      7 C07          2.0940    -0.0050    -1.2030 ca         1 KK8      -0.126000
      8 C08          5.7850     0.2180     3.9830 cc         1 KK8       0.180400
      9 N09          4.6940    -0.2410     4.5340 nd         1 KK8      -0.322000
     10 N10          3.7730    -0.3710     3.6480 nd         1 KK8      -0.310000
     11 C11          4.2320     0.0010     2.4730 cc         1 KK8       0.239000
     12 N12          5.5300     0.3930     2.6580 na         1 KK8       0.196300
     13 C13         -0.6740    -0.6750     0.9520 c          1 KK8       0.470600
     14 C14         -2.1530    -0.7490     0.9010 ca         1 KK8       0.318800
     15 N15         -2.8070    -0.1490    -0.0850 nb         1 KK8      -0.580000
     16 C16         -2.8420    -1.4530     1.8850 ca         1 KK8      -0.147300
     17 C17         -4.2360    -1.5130     1.8210 cp         1 KK8       0.000000
     18 C18         -4.8790    -0.8590     0.7670 ca         1 KK8      -0.203300
     19 C19         -4.1200    -0.1860    -0.1740 ca         1 KK8       0.402200
     20 O20         -0.0690    -1.2220     1.8530 o          1 KK8      -0.624100
     21 C21          6.4540     0.8960     1.6380 cx         1 KK8      -0.170000
     22 C22         -5.0130    -2.2510     2.8460 cp         1 KK8      -0.167300
     23 C23         -4.3650    -2.9000     3.8960 ca         1 KK8       0.419200
     24 N24         -5.0540    -3.5550     4.8070 nb         1 KK8      -0.575000
     25 C25         -6.3710    -3.6250     4.7670 ca         1 KK8       0.412200
     26 C26         -7.0870    -3.0080     3.7580 ca         1 KK8      -0.221300
     27 C27         -6.4090    -2.3020     2.7800 ca         1 KK8      -0.061000
     28 C28          7.7570     1.5360     2.1210 cx         1 KK8      -0.067400
     29 C29          7.7820     0.1550     1.4620 cx         1 KK8      -0.067400
     30 H1          -0.5000     0.5220    -0.6920 hn         1 KK8       0.185500
     31 H2           1.5510    -0.0000     2.1400 ha         1 KK8       0.167000
     32 H3           5.2570     0.0020    -0.0250 ha         1 KK8       0.113000
     33 H4           4.0130    -0.0010    -2.1480 ha         1 KK8       0.102000
     34 H5           1.5510    -0.0050    -2.1410 ha         1 KK8       0.107000
     35 H7          -2.3050    -1.9460     2.6860 ha         1 KK8       0.148000
     36 H8          -5.9590    -0.8840     0.6840 ha         1 KK8       0.121000
     37 H9          -4.6130     0.3200    -0.9940 h4         1 KK8      -0.017900
     38 H10          6.0490     1.3230     0.7290 h1         1 KK8       0.103700
     39 H11         -3.2840    -2.8650     3.9630 h4         1 KK8      -0.004900
     40 H12         -6.8990    -4.1770     5.5360 h4         1 KK8      -0.018900
     41 H13         -8.1680    -3.0710     3.7370 ha         1 KK8       0.114000
     42 H14         -6.9450    -1.8090     1.9780 ha         1 KK8       0.114000
     43 H15          7.9040     1.5450     3.1950 hc         1 KK8       0.056700
     44 H16          8.1310     2.3510     1.5130 hc         1 KK8       0.056700
     45 H17          8.1710     0.1260     0.4520 hc         1 KK8       0.056700
     46 H18          7.9440    -0.6800     2.1330 hc         1 KK8       0.056700
     47 H6           6.7200     0.4260     4.4880 h5         1 KK8       0.032100
@<TRIPOS>BOND
     1     1     2 1   
     2     1    13 1   
     3     1    30 1   
     4     2     3 ar  
     5     2     7 ar  
     6     3     4 ar  
     7     3    31 1   
     8     4     5 ar  
     9     4    11 1   
    10     5     6 ar  
    11     5    32 1   
    12     6     7 ar  
    13     6    33 1   
    14     7    34 1   
    15     8     9 2   
    16     8    12 1   
    17     8    47 1   
    18     9    10 1   
    19    10    11 2   
    20    11    12 1   
    21    12    21 1   
    22    13    14 1   
    23    13    20 2   
    24    14    15 ar  
    25    14    16 ar  
    26    15    19 ar  
    27    16    17 ar  
    28    16    35 1   
    29    17    18 ar  
    30    17    22 1   
    31    18    19 ar  
    32    18    36 1   
    33    19    37 1   
    34    21    28 1   
    35    21    29 1   
    36    21    38 1   
    37    22    23 ar  
    38    22    27 ar  
    39    23    24 ar  
    40    23    39 1   
    41    24    25 ar  
    42    25    26 ar  
    43    25    40 1   
    44    26    27 ar  
    45    26    41 1   
    46    27    42 1   
    47    28    29 1   
    48    28    43 1   
    49    28    44 1   
    50    29    45 1   
    51    29    46 1   
@<TRIPOS>SUBSTRUCTURE
     1 KK8         1 TEMP              0 ****  ****    0 ROOT
