@<TRIPOS>MOLECULE
molecule
   47    51     1     0     0
SMALL
bcc


@<TRIPOS>ATOM
      1 N01          0.0000     0.0000     0.0000 ns         1 KK8      -0.461100
      2 C02          1.3990     0.0000     0.0000 ca         1 KK8       0.054600
      3 C03          2.0910     0.0000     1.2010 ca         1 KK8      -0.088000
      4 C04          3.4850    -0.0000     1.1960 ca         1 KK8      -0.097500
      5 C05          4.1740     0.0000    -0.0180 ca         1 KK8      -0.150000
      6 C06          3.4760     0.0010    -1.2080 ca         1 KK8      -0.114000
      7 C07          2.0940    -0.0050    -1.2030 ca         1 KK8      -0.149000
      8 C08          5.7850     0.2180     3.9830 cc         1 KK8       0.349400
      9 N09          4.6940    -0.2410     4.5340 nd         1 KK8      -0.351000
     10 N10          3.7730    -0.3710     3.6480 nd         1 KK8      -0.335000
     11 C11          4.2320     0.0010     2.4730 cc         1 KK8       0.422000
     12 N12          5.5300     0.3930     2.6580 na         1 KK8      -0.293700
     13 C13         -0.6740    -0.6750     0.9520 c          1 KK8       0.574600
     14 C14         -2.1530    -0.7490     0.9010 ca         1 KK8       0.375800
     15 N15         -2.8070    -0.1490    -0.0850 nb         1 KK8      -0.693000
     16 C16         -2.8420    -1.4530     1.8850 ca         1 KK8      -0.182300
     17 C17         -4.2360    -1.5130     1.8210 cp         1 KK8       0.000000
     18 C18         -4.8790    -0.8590     0.7670 ca         1 KK8      -0.230300
     19 C19         -4.1200    -0.1860    -0.1740 ca         1 KK8       0.420200
     20 O20         -0.0690    -1.2220     1.8530 o          1 KK8      -0.580100
     21 C21          6.4540     0.8960     1.6380 cx         1 KK8      -0.034000
     22 C22         -5.0130    -2.2510     2.8460 cp         1 KK8      -0.176300
     23 C23         -4.3650    -2.9000     3.8960 ca         1 KK8       0.442200
     24 N24         -5.0540    -3.5550     4.8070 nb         1 KK8      -0.683000
     25 C25         -6.3710    -3.6250     4.7670 ca         1 KK8       0.429200
     26 C26         -7.0870    -3.0080     3.7580 ca         1 KK8      -0.255300
     27 C27         -6.4090    -2.3020     2.7800 ca         1 KK8      -0.078000
     28 C28          7.7570     1.5360     2.1210 cx         1 KK8      -0.137400
     29 C29          7.7820     0.1550     1.4620 cx         1 KK8      -0.137400
     30 H1          -0.5000     0.5220    -0.6920 hn         1 KK8       0.345500
     31 H2           1.5510    -0.0000     2.1400 ha         1 KK8       0.189000
     32 H3           5.2570     0.0020    -0.0250 ha         1 KK8       0.133000
     33 H4           4.0130    -0.0010    -2.1480 ha         1 KK8       0.133000
     34 H5           1.5510    -0.0050    -2.1410 ha         1 KK8       0.134000
     35 H7          -2.3050    -1.9460     2.6860 ha         1 KK8       0.171000
     36 H8          -5.9590    -0.8840     0.6840 ha         1 KK8       0.143000
     37 H9          -4.6130     0.3200    -0.9940 h4         1 KK8       0.028100
     38 H10          6.0490     1.3230     0.7290 h1         1 KK8       0.121700
     39 H11         -3.2840    -2.8650     3.9630 h4         1 KK8       0.035100
     40 H12         -6.8990    -4.1770     5.5360 h4         1 KK8       0.027100
     41 H13         -8.1680    -3.0710     3.7370 ha         1 KK8       0.141000
     42 H14         -6.9450    -1.8090     1.9780 ha         1 KK8       0.139000
     43 H15          7.9040     1.5450     3.1950 hc         1 KK8       0.087200
     44 H16          8.1310     2.3510     1.5130 hc         1 KK8       0.087200
     45 H17          8.1710     0.1260     0.4520 hc         1 KK8       0.087200
     46 H18          7.9440    -0.6800     2.1330 hc         1 KK8       0.087200
     47 H6           6.7200     0.4260     4.4880 h5         1 KK8       0.070100
@<TRIPOS>BOND
     1    25    24 ar
     2    25    26 ar
     3    24    23 ar
     4    26    27 ar
     5    23    22 ar
     6    27    22 ar
     7    22    17 1
     8    17    16 ar
     9    17    18 ar
    10    16    14 ar
    11    18    19 ar
    12    20    13 2
    13    14    13 1
    14    14    15 ar
    15    13     1 1
    16    19    15 ar
    17     7     2 ar
    18     7     6 ar
    19     1     2 1
    20     2     3 ar
    21     6     5 ar
    22     3     4 ar
    23     5     4 ar
    24     4    11 1
    25    28    21 1
    26    28    29 1
    27    11    10 2
    28    11    12 1
    29    21    12 1
    30    21    29 1
    31    10     9 1
    32    12     8 1
    33     9     8 2
    34     1    30 1
    35     3    31 1
    36     5    32 1
    37     6    33 1
    38     7    34 1
    39     8    47 1
    40    16    35 1
    41    18    36 1
    42    19    37 1
    43    21    38 1
    44    23    39 1
    45    25    40 1
    46    26    41 1
    47    27    42 1
    48    28    43 1
    49    28    44 1
    50    29    45 1
    51    29    46 1
@<TRIPOS>SUBSTRUCTURE
     1 KK8         1 TEMP              0 ****  ****    0 ROOT
