@<TRIPOS>MOLECULE
molecule
   35    34     1     0     0
SMALL
bcc


@<TRIPOS>ATOM
      1 C            1.5300     0.0000     0.0000 c3         1 KKA       0.043500
      2 N            2.0190     0.0000     1.3850 nz         1 KKA      -0.802600
      3 O           -1.7540    -3.4300     1.6000 o          1 KKA      -0.635100
      4 S           -7.3500    -2.6060     4.3120 sh         1 KKA      -0.416900
      5 C1           0.0000     0.0000     0.0000 c3         1 KKA      -0.245400
      6 N1          -3.8680    -2.8180     1.3140 ns         1 KKA      -0.543900
      7 C2          -0.5100    -1.3070     0.6100 c3         1 KKA      -0.043400
      8 C3          -2.0400    -1.3070     0.6100 c3         1 KKA      -0.154400
      9 C4          -2.5420    -2.5940     1.2100 c          1 KKA       0.660100
     10 C5          -4.3560    -4.0690     1.8970 c3         1 KKA       0.003700
     11 C6          -5.7590    -3.8520     2.4690 c3         1 KKA      -0.071400
     12 C7          -5.6870    -2.8630     3.6340 c3         1 KKA       0.001700
     13 C8          -4.4070    -5.1340     0.8320 c          1 KKA       0.887600
     14 C9           2.0330     1.2310    -0.7100 c          1 KKA       0.869600
     15 H            1.8910    -0.8840    -0.5110 hx         1 KKA       0.082700
     16 HN           2.0720    -0.9420     1.7210 hn         1 KKA       0.437133
     17 HNA          1.3910     0.5250     1.9610 hn         1 KKA       0.437133
     18 HS          -7.2560    -2.1340     5.5490 hs         1 KKA       0.188800
     19 H1           0.5450    -0.7170    -0.6020 hc         1 KKA       0.123700
     20 H1A         -0.5820     0.5340    -0.7420 hc         1 KKA       0.123700
     21 HN1         -4.5180    -2.1410     0.9670 hn         1 KKA       0.302500
     22 H2          -0.1490    -2.1440     0.0240 hc         1 KKA       0.039200
     23 H2A         -0.1490    -1.3960     1.6270 hc         1 KKA       0.039200
     24 H3          -2.4010    -1.2190    -0.4080 hc         1 KKA       0.062200
     25 H3A         -2.4010    -0.4700     1.1950 hc         1 KKA       0.062200
     26 H5          -3.6880    -4.3830     2.6900 h1         1 KKA       0.070700
     27 H6          -6.1560    -4.7970     2.8210 hc         1 KKA       0.069200
     28 H6A         -6.4060    -3.4540     1.6970 hc         1 KKA       0.069200
     29 H7          -5.3070    -1.9160     3.2710 h1         1 KKA       0.064200
     30 H7A         -4.8750    -3.4150     4.0920 h1         1 KKA       0.064200
     31 O3           2.0660     1.2640    -2.0510 o          1 KKA      -0.781800
     32 O4           2.4050     2.1870    -0.0720 o          1 KKA      -0.781800
     33 O1          -4.8260    -6.3710     1.1400 o          1 KKA      -0.831800
     34 O2          -4.0690    -4.8740    -0.2980 o          1 KKA      -0.831800
     35 HN3          2.9280     0.4170     1.4180 hn         1 KKA       0.437133
@<TRIPOS>BOND
     1     5     1 1
     2    14     1 1
     3     1     2 1
     4     1    15 1
     5     2    16 1
     6     2    17 1
     7     9     3 2
     8    12     4 1
     9     4    18 1
    10     5     7 1
    11     5    19 1
    12     5    20 1
    13     6    10 1
    14     6     9 1
    15     6    21 1
    16    13    33 1
    17     8     7 1
    18     7    22 1
    19     7    23 1
    20    34    13 1
    21     8     9 1
    22     8    24 1
    23     8    25 1
    24    14    31 1
    25    32    14 1
    26    13    10 1
    27    10    11 1
    28    10    26 1
    29    11    12 1
    30    11    27 1
    31    11    28 1
    32    12    29 1
    33    12    30 1
    34    35     2 1
@<TRIPOS>SUBSTRUCTURE
     1 KKA         1 TEMP              0 ****  ****    0 ROOT
