@<TRIPOS>MOLECULE
KKA
   35    34     1     0     0
SMALL
bcc


@<TRIPOS>ATOM
      1 C            1.5300     0.0000     0.0000 c3         1 KKA      -0.106500
      2 N            2.0190     0.0000     1.3850 nz         1 KKA       0.035400
      3 O           -1.7540    -3.4300     1.6000 o          1 KKA      -0.677100
      4 S           -7.3500    -2.6060     4.3120 sh         1 KKA      -0.394900
      5 C1           0.0000     0.0000     0.0000 c3         1 KKA      -0.224400
      6 N1          -3.8680    -2.8180     1.3140 ns         1 KKA      -0.128900
      7 C2          -0.5100    -1.3070     0.6100 c3         1 KKA       0.030600
      8 C3          -2.0400    -1.3070     0.6100 c3         1 KKA      -0.096400
      9 C4          -2.5420    -2.5940     1.2100 c          1 KKA       0.566100
     10 C5          -4.3560    -4.0690     1.8970 c3         1 KKA      -0.104300
     11 C6          -5.7590    -3.8520     2.4690 c3         1 KKA      -0.016400
     12 C7          -5.6870    -2.8630     3.6340 c3         1 KKA       0.051700
     13 C8          -4.4070    -5.1340     0.8320 c          1 KKA       0.976600
     14 C9           2.0330     1.2310    -0.7100 c          1 KKA       0.954600
     15 H            1.8910    -0.8840    -0.5110 hx         1 KKA       0.067700
     16 HN           2.0720    -0.9420     1.7210 hn         1 KKA       0.217133
     17 HNA          1.3910     0.5250     1.9610 hn         1 KKA       0.217133
     18 HS          -7.2560    -2.1340     5.5490 hs         1 KKA       0.161800
     19 H1           0.5450    -0.7170    -0.6020 hc         1 KKA       0.099700
     20 H1A         -0.5820     0.5340    -0.7420 hc         1 KKA       0.099700
     21 HN1         -4.5180    -2.1410     0.9670 hn         1 KKA       0.158500
     22 H2          -0.1490    -2.1440     0.0240 hc         1 KKA       0.010200
     23 H2A         -0.1490    -1.3960     1.6270 hc         1 KKA       0.010200
     24 H3          -2.4010    -1.2190    -0.4080 hc         1 KKA       0.029700
     25 H3A         -2.4010    -0.4700     1.1950 hc         1 KKA       0.029700
     26 H5          -3.6880    -4.3830     2.6900 h1         1 KKA       0.053700
     27 H6          -6.1560    -4.7970     2.8210 hc         1 KKA       0.044700
     28 H6A         -6.4060    -3.4540     1.6970 hc         1 KKA       0.044700
     29 H7          -5.3070    -1.9160     3.2710 h1         1 KKA       0.043200
     30 H7A         -4.8750    -3.4150     4.0920 h1         1 KKA       0.043200
     31 O3           2.0660     1.2640    -2.0510 o          1 KKA      -0.825300
     32 O4           2.4050     2.1870    -0.0720 o          1 KKA      -0.825300
     33 O1          -4.8260    -6.3710     1.1400 o          1 KKA      -0.881300
     34 O2          -4.0690    -4.8740    -0.2980 o          1 KKA      -0.881300
     35 HN3          2.9280     0.4170     1.4180 hn         1 KKA       0.217133
@<TRIPOS>BOND
     1     1     2 1   
     2     1     5 1   
     3     1    14 1   
     4     1    15 1   
     5     2    16 1   
     6     2    17 1   
     7     2    35 1   
     8     3     9 2   
     9     4    12 1   
    10     4    18 1   
    11     5     7 1   
    12     5    19 1   
    13     5    20 1   
    14     6     9 1   
    15     6    10 1   
    16     6    21 1   
    17     7     8 1   
    18     7    22 1   
    19     7    23 1   
    20     8     9 1   
    21     8    24 1   
    22     8    25 1   
    23    10    11 1   
    24    10    13 1   
    25    10    26 1   
    26    11    12 1   
    27    11    27 1   
    28    11    28 1   
    29    12    29 1   
    30    12    30 1   
    31    13    33 1   
    32    13    34 1   
    33    14    31 1   
    34    14    32 1   
@<TRIPOS>SUBSTRUCTURE
     1 KKA         1 TEMP              0 ****  ****    0 ROOT
