@<TRIPOS>MOLECULE
KKG
   22    23     1     0     0
SMALL
bcc


@<TRIPOS>ATOM
      1 C1           0.0000     0.0000     0.0000 c          1 KKG       0.970600
      2 C2          -2.8550    -1.1800     0.9150 cc         1 KKG       0.385800
      3 C3          -4.9030    -0.1570     0.5470 ca         1 KKG       0.182400
      4 C4          -6.2740    -0.2460     0.2970 ca         1 KKG      -0.120000
      5 C5          -7.0180     0.9050     0.1650 ca         1 KKG      -0.080000
      6 C6          -6.4230     2.1550     0.2770 ca         1 KKG      -0.165000
      7 O1           1.3420     0.0000     0.0000 o          1 KKG      -0.878800
      8 N1          -4.1300    -1.2640     0.6840 nd         1 KKG      -0.619100
      9 C9          -2.8540     1.1750     0.9160 c          1 KKG       0.628100
     10 N           -2.1940    -0.0010     1.0380 n          1 KKG       0.099700
     11 C           -0.7540     0.0000     1.3050 c3         1 KKG      -0.112000
     12 O           -0.6050     0.0050    -1.0460 o          1 KKG      -0.878800
     13 C8          -4.3010     1.1160     0.6600 ca         1 KKG      -0.220600
     14 C7          -5.0720     2.2680     0.5230 ca         1 KKG      -0.012000
     15 H1          -2.2910    -2.0990     1.0200 h5         1 KKG       0.002800
     16 H2          -6.7490    -1.2150     0.2080 ha         1 KKG       0.109000
     17 H3          -8.0810     0.8340    -0.0280 ha         1 KKG       0.087000
     18 H4          -7.0270     3.0480     0.1700 ha         1 KKG       0.094000
     19 H6          -0.4920    -0.8840     1.8730 h1         1 KKG       0.038700
     20 H7          -0.4930     0.8850     1.8730 h1         1 KKG       0.038700
     21 H8          -4.6130     3.2450     0.6090 ha         1 KKG       0.117000
     22 O2          -2.2730     2.2390     1.0250 o          1 KKG      -0.667500
@<TRIPOS>BOND
     1     1     7 1   
     2     1    11 1   
     3     1    12 1   
     4     2     8 2   
     5     2    10 1   
     6     2    15 1   
     7     3     4 ar  
     8     3     8 1   
     9     3    13 ar  
    10     4     5 ar  
    11     4    16 1   
    12     5     6 ar  
    13     5    17 1   
    14     6    14 ar  
    15     6    18 1   
    16     9    10 1   
    17     9    13 1   
    18     9    22 2   
    19    10    11 1   
    20    11    19 1   
    21    11    20 1   
    22    13    14 ar  
    23    14    21 1   
@<TRIPOS>SUBSTRUCTURE
     1 KKG         1 TEMP              0 ****  ****    0 ROOT
