@<TRIPOS>MOLECULE
molecule
   47    46     1     0     0
SMALL
bcc


@<TRIPOS>ATOM
      1 O1           0.0000     0.0000     0.0000 oh         1 KKJ      -0.630800
      2 C2           1.4290     0.0000     0.0000 c3         1 KKJ       0.162100
      3 C3           1.9400     0.0000     1.4420 c3         1 KKJ      -0.180700
      4 C4           3.4470     0.0000     1.4410 c          1 KKJ       0.899600
      5 O5           4.1180    -0.0000     2.6030 o          1 KKJ      -0.848800
      6 O6           4.0500     0.0010     0.3950 o          1 KKJ      -0.848800
      7 C7           1.9390    -1.2490    -0.7220 c3         1 KKJ      -0.099400
      8 C8           1.5340    -1.1870    -2.1970 c3         1 KKJ      -0.080400
      9 C9           2.0440    -2.4360    -2.9180 c3         1 KKJ      -0.079400
     10 C10          1.6380    -2.3750    -4.3920 c3         1 KKJ      -0.082400
     11 C11          2.1480    -3.6240    -5.1140 c3         1 KKJ      -0.085400
     12 C12          1.7430    -3.5630    -6.5880 c3         1 KKJ      -0.092100
     13 C13          1.4300     1.2490     2.1630 c3         1 KKJ      -0.050400
     14 C14          1.8350     1.1880     3.6370 c3         1 KKJ      -0.094400
     15 C15          1.3250     2.4360     4.3590 c3         1 KKJ      -0.082400
     16 C16          1.7310     2.3750     5.8330 c3         1 KKJ      -0.078400
     17 C17          1.2210     3.6240     6.5550 c3         1 KKJ      -0.086400
     18 C18          1.6260     3.5630     8.0290 c3         1 KKJ      -0.092100
     19 HO1         -0.3140     0.7560    -0.4680 ho         1 KKJ       0.378000
     20 H2           1.7900     0.8850    -0.5110 h1         1 KKJ       0.035700
     21 H3           1.5800    -0.8850     1.9530 hc         1 KKJ       0.054700
     22 H7           1.5070    -2.1320    -0.2660 hc         1 KKJ       0.073200
     23 H7A          3.0190    -1.2950    -0.6460 hc         1 KKJ       0.073200
     24 H8           0.4540    -1.1420    -2.2730 hc         1 KKJ       0.030700
     25 H8A          1.9650    -0.3050    -2.6530 hc         1 KKJ       0.030700
     26 H9           1.6120    -3.3190    -2.4610 hc         1 KKJ       0.041200
     27 H9A          3.1230    -2.4820    -2.8420 hc         1 KKJ       0.041200
     28 H10          2.0690    -1.4930    -4.8490 hc         1 KKJ       0.035700
     29 H10A         0.5580    -2.3300    -4.4680 hc         1 KKJ       0.035700
     30 H11          3.2270    -3.6700    -5.0370 hc         1 KKJ       0.038700
     31 H11A         1.7160    -4.5060    -4.6570 hc         1 KKJ       0.038700
     32 H12          2.1750    -2.6810    -7.0450 hc         1 KKJ       0.026367
     33 H12A         0.6630    -3.5170    -6.6640 hc         1 KKJ       0.026367
     34 H12B         2.1040    -4.4480    -7.0980 hc         1 KKJ       0.026367
     35 H13          1.8620     2.1310     1.7070 hc         1 KKJ       0.019200
     36 H13A         0.3510     1.2950     2.0870 hc         1 KKJ       0.019200
     37 H14          2.9150     1.1430     3.7140 hc         1 KKJ       0.074700
     38 H14A         1.4040     0.3050     4.0940 hc         1 KKJ       0.074700
     39 H15          0.2450     2.4810     4.2830 hc         1 KKJ       0.024200
     40 H15A         1.7560     3.3190     3.9020 hc         1 KKJ       0.024200
     41 H16          2.8100     2.3300     5.9090 hc         1 KKJ       0.043200
     42 H16A         1.2990     1.4920     6.2900 hc         1 KKJ       0.043200
     43 H17          0.1410     3.6690     6.4790 hc         1 KKJ       0.033200
     44 H17A         1.6520     4.5060     6.0980 hc         1 KKJ       0.033200
     45 H18          2.7060     3.5170     8.1050 hc         1 KKJ       0.025700
     46 H18A         1.2650     4.4470     8.5400 hc         1 KKJ       0.025700
     47 H18B         1.1950     2.6800     8.4860 hc         1 KKJ       0.025700
@<TRIPOS>BOND
     1     1     2 1
     2     2     3 1
     3     2     7 1
     4     3     4 1
     5     3    13 1
     6     4     5 1
     7     4     6 1
     8     7     8 1
     9     8     9 1
    10     9    10 1
    11    10    11 1
    12    11    12 1
    13    13    14 1
    14    14    15 1
    15    15    16 1
    16    16    17 1
    17    17    18 1
    18     1    19 1
    19     2    20 1
    20     3    21 1
    21     7    22 1
    22     7    23 1
    23     8    24 1
    24     8    25 1
    25     9    26 1
    26     9    27 1
    27    10    28 1
    28    10    29 1
    29    11    30 1
    30    11    31 1
    31    12    32 1
    32    12    33 1
    33    12    34 1
    34    13    35 1
    35    13    36 1
    36    14    37 1
    37    14    38 1
    38    15    39 1
    39    15    40 1
    40    16    41 1
    41    16    42 1
    42    17    43 1
    43    17    44 1
    44    18    45 1
    45    18    46 1
    46    18    47 1
@<TRIPOS>SUBSTRUCTURE
     1 KKJ         1 TEMP              0 ****  ****    0 ROOT
