@<TRIPOS>MOLECULE
KKJ
   47    46     1     0     0
SMALL
bcc


@<TRIPOS>ATOM
      1 O1         -0.1120    0.1180   -0.1240 oh        1 KKJ     -0.634800
      2 C2          1.3140    0.0380   -0.0530 c3        1 KKJ      0.154100
      3 C3          1.8460    0.0720    1.3800 c3        1 KKJ     -0.222700
      4 C4          3.3940    0.2100    1.3070 c         1 KKJ      0.912600
      5 O5          4.0820   -0.8130    1.5830 o         1 KKJ     -0.841300
      6 O6          3.8810    1.3250    0.9670 o         1 KKJ     -0.841300
      7 C7          1.7000   -1.2750   -0.7310 c3        1 KKJ     -0.080400
      8 C8          1.5690   -1.1830   -2.2350 c3        1 KKJ     -0.075400
      9 C9          1.9080   -2.5020   -2.8960 c3        1 KKJ     -0.078400
     10 C10         1.7940   -2.4110   -4.4020 c3        1 KKJ     -0.078400
     11 C11         2.1290   -3.7300   -5.0640 c3        1 KKJ     -0.081400
     12 C12         2.0170   -3.6440   -6.5640 c3        1 KKJ     -0.090100
     13 C13         1.2600    1.2160    2.1840 c3        1 KKJ     -0.053400
     14 C14         1.8150    1.2350    3.5940 c3        1 KKJ     -0.078400
     15 C15         1.2520    2.3920    4.3920 c3        1 KKJ     -0.075400
     16 C16         1.8080    2.4090    5.8000 c3        1 KKJ     -0.079400
     17 C17         1.2560    3.5690    6.6010 c3        1 KKJ     -0.080400
     18 C18         1.8060    3.5880    8.0040 c3        1 KKJ     -0.090100
     19 HO1        -0.3590    0.9520    0.2880 ho        1 KKJ      0.387000
     20 H2          1.7510    0.9110   -0.6200 h1        1 KKJ      0.045700
     21 H3          1.6000   -0.8990    1.8850 hc        1 KKJ      0.047700
     22 H7          2.7610   -1.5120   -0.4410 hc        1 KKJ      0.064200
     23 H7A         1.0420   -2.0940   -0.3420 hc        1 KKJ      0.064200
     24 H8          0.5210   -0.8830   -2.4980 hc        1 KKJ      0.037200
     25 H8A         2.2540   -0.3830   -2.6230 hc        1 KKJ      0.037200
     26 H9          2.9510   -2.8040   -2.6140 hc        1 KKJ      0.038200
     27 H9A         1.2180   -3.3010   -2.5140 hc        1 KKJ      0.038200
     28 H10         0.7510   -2.1050   -4.6820 hc        1 KKJ      0.035200
     29 H10A        2.4850   -1.6140   -4.7830 hc        1 KKJ      0.035200
     30 H11         3.1710   -4.0350   -4.7810 hc        1 KKJ      0.036200
     31 H11A        1.4380   -4.5270   -4.6800 hc        1 KKJ      0.036200
     32 H12         2.2690   -4.6270   -7.0320 hc        1 KKJ      0.025700
     33 H12A        0.9790   -3.3650   -6.8670 hc        1 KKJ      0.025700
     34 H12B        2.7170   -2.8730   -6.9670 hc        1 KKJ      0.025700
     35 H13         1.5120    2.1820    1.6720 hc        1 KKJ      0.021200
     36 H13A        0.1410    1.1270    2.2360 hc        1 KKJ      0.021200
     37 H14         2.9340    1.3140    3.5360 hc        1 KKJ      0.055200
     38 H14A        1.5730    0.2680    4.1080 hc        1 KKJ      0.055200
     39 H15         0.1340    2.3190    4.4310 hc        1 KKJ      0.028200
     40 H15A        1.5030    3.3570    3.8780 hc        1 KKJ      0.028200
     41 H16         2.9270    2.4790    5.7580 hc        1 KKJ      0.040200
     42 H16A        1.5580    1.4440    6.3150 hc        1 KKJ      0.040200
     43 H17         1.5100    4.5320    6.0840 hc        1 KKJ      0.032700
     44 H17A        0.1370    3.5000    6.6360 hc        1 KKJ      0.032700
     45 H18         2.9190    3.6790    7.9880 hc        1 KKJ      0.025700
     46 H18A        1.5410    2.6460    8.5430 hc        1 KKJ      0.025700
     47 H18B        1.3890    4.4510    8.5760 hc        1 KKJ      0.025700
@<TRIPOS>BOND
     1    1    2 1   
     2    1   19 1   
     3    2    3 1   
     4    2    7 1   
     5    2   20 1   
     6    3    4 1   
     7    3   13 1   
     8    3   21 1   
     9    4    5 1   
    10    4    6 1   
    11    7    8 1   
    12    7   22 1   
    13    7   23 1   
    14    8    9 1   
    15    8   24 1   
    16    8   25 1   
    17    9   10 1   
    18    9   26 1   
    19    9   27 1   
    20   10   11 1   
    21   10   28 1   
    22   10   29 1   
    23   11   12 1   
    24   11   30 1   
    25   11   31 1   
    26   12   32 1   
    27   12   33 1   
    28   12   34 1   
    29   13   14 1   
    30   13   35 1   
    31   13   36 1   
    32   14   15 1   
    33   14   37 1   
    34   14   38 1   
    35   15   16 1   
    36   15   39 1   
    37   15   40 1   
    38   16   17 1   
    39   16   41 1   
    40   16   42 1   
    41   17   18 1   
    42   17   43 1   
    43   17   44 1   
    44   18   45 1   
    45   18   46 1   
    46   18   47 1   
@<TRIPOS>SUBSTRUCTURE
     1 KKJ         1 TEMP              0 ****  ****    0 ROOT
