@<TRIPOS>MOLECULE
KKK
   64    68     1     0     0
SMALL
bcc


@<TRIPOS>ATOM
      1 C1           0.0000     0.0000     0.0000 cc         1 KKK       0.228400
      2 N1           1.3500     0.0000     0.0000 na         1 KKK       0.289100
      3 O1           1.2990     2.1270    -1.8830 os         1 KKK      -0.388600
      4 Cl1          6.0610     1.4450    -6.4450 cl         1 KKK      -0.009400
      5 C2           0.6370     0.0100     2.0610 cd         1 KKK       0.318200
      6 N2          -0.4200     0.0060     1.2350 nd         1 KKK      -0.631000
      7 O2           3.1850     2.1230    -0.5080 os         1 KKK      -0.393600
      8 Cl2          3.2960     4.1450    -2.6680 cl         1 KKK       0.002600
      9 C3           1.7540     0.0000     1.3080 cc         1 KKK      -0.436600
     10 N3          -6.4480     4.5400    -0.4730 nh         1 KKK      -0.358000
     11 O3          -1.0810     3.7840    -1.5650 os         1 KKK      -0.294900
     12 C4           2.2200     0.0010    -1.1780 c3         1 KKK      -0.082700
     13 N4          -8.7660     5.6060     0.6480 n          1 KKK      -0.164800
     14 O4          -9.8840     7.4900     0.9970 o          1 KKK      -0.649100
     15 C5           2.5240     1.4430    -1.5880 c3         1 KKK       0.403900
     16 C6           1.1940     3.2340    -0.9650 c3         1 KKK       0.113100
     17 C7           2.1260     2.8140     0.1980 c3         1 KKK       0.144400
     18 C8           3.4110     1.4440    -2.8060 ca         1 KKK      -0.117300
     19 C9           3.8140     2.6430    -3.3670 ca         1 KKK       0.019400
     20 C10          4.6280     2.6440    -4.4850 ca         1 KKK      -0.101000
     21 C11          5.0390     1.4450    -5.0410 ca         1 KKK      -0.015600
     22 C12          4.6360     0.2470    -4.4790 ca         1 KKK      -0.099000
     23 C13          3.8270     0.2470    -3.3590 ca         1 KKK      -0.076000
     24 C14         -0.2460     3.3950    -0.4740 c3         1 KKK       0.183400
     25 C15         -2.4010     3.9700    -1.2960 ca         1 KKK       0.126100
     26 C16         -3.2690     4.3500    -2.3110 ca         1 KKK      -0.147000
     27 C17         -4.6090     4.5390    -2.0380 ca         1 KKK      -0.102500
     28 C18         -5.0890     4.3490    -0.7500 ca         1 KKK      -0.020400
     29 C19         -4.2210     3.9680     0.2650 ca         1 KKK      -0.102500
     30 C20         -2.8820     3.7760    -0.0100 ca         1 KKK      -0.147000
     31 C21         -6.7370     4.2880     0.9440 c3         1 KKK       0.118300
     32 C22         -8.2530     4.3310     1.1690 c3         1 KKK       0.049000
     33 C23         -8.4030     5.9940    -0.7240 c3         1 KKK       0.049000
     34 C24         -6.8810     5.8860    -0.8740 c3         1 KKK       0.118300
     35 C25         -9.5490     6.3980     1.4060 c          1 KKK       0.589100
     36 C26        -10.0090     5.9280     2.7610 c3         1 KKK      -0.073100
     37 H1          -0.6310    -0.0020    -0.8810 h5         1 KKK       0.034100
     38 H2           0.5990     0.0140     3.1440 h4         1 KKK       0.004100
     39 H3           2.7750    -0.0000     1.6680 h4         1 KKK       0.160000
     40 H4           3.1460    -0.5100    -0.9430 h1         1 KKK       0.057700
     41 H4A          1.7230    -0.5100    -1.9940 h1         1 KKK       0.057700
     42 H6           1.5510     4.1460    -1.4280 h1         1 KKK       0.060700
     43 H7           1.6150     2.1430     0.8780 h1         1 KKK       0.042200
     44 H7A          2.5120     3.6830     0.7160 h1         1 KKK       0.042200
     45 H10          4.9730     3.5820    -4.9030 ha         1 KKK       0.129000
     46 H12          4.9610    -0.6910    -4.9120 ha         1 KKK       0.119000
     47 H13          3.5110    -0.6910    -2.9190 ha         1 KKK       0.116000
     48 H14         -0.5970     2.4530    -0.0690 h1         1 KKK       0.021200
     49 H14A        -0.2820     4.1550     0.2970 h1         1 KKK       0.021200
     50 H16         -2.8940     4.4990    -3.3160 ha         1 KKK       0.119500
     51 H17         -5.2860     4.8350    -2.8300 ha         1 KKK       0.117500
     52 H19         -4.5950     3.8160     1.2700 ha         1 KKK       0.117500
     53 H20         -2.2040     3.4790     0.7810 ha         1 KKK       0.119500
     54 H21         -6.2610     5.0490     1.5510 h1         1 KKK       0.026200
     55 H21A        -6.3600     3.3100     1.2200 h1         1 KKK       0.026200
     56 H22         -8.4650     4.2600     2.2290 h1         1 KKK       0.035450
     57 H22A        -8.7210     3.5080     0.6420 h1         1 KKK       0.035450
     58 H23         -8.8860     5.3290    -1.4290 h1         1 KKK       0.035450
     59 H23A        -8.7130     7.0160    -0.9060 h1         1 KKK       0.035450
     60 H24         -6.6080     6.0590    -1.9080 h1         1 KKK       0.026200
     61 H24A        -6.4030     6.6230    -0.2390 h1         1 KKK       0.026200
     62 H26        -10.4440     4.9390     2.6720 hc         1 KKK       0.024700
     63 H26A        -9.1630     5.8910     3.4370 hc         1 KKK       0.024700
     64 H26B       -10.7520     6.6150     3.1490 hc         1 KKK       0.024700
@<TRIPOS>BOND
     1     1     2 1   
     2     1     6 2   
     3     1    37 1   
     4     2     9 1   
     5     2    12 1   
     6     3    15 1   
     7     3    16 1   
     8     4    21 1   
     9     5     6 1   
    10     5     9 2   
    11     5    38 1   
    12     7    15 1   
    13     7    17 1   
    14     8    19 1   
    15     9    39 1   
    16    10    28 1   
    17    10    31 1   
    18    10    34 1   
    19    11    24 1   
    20    11    25 1   
    21    12    15 1   
    22    12    40 1   
    23    12    41 1   
    24    13    32 1   
    25    13    33 1   
    26    13    35 1   
    27    14    35 2   
    28    15    18 1   
    29    16    17 1   
    30    16    24 1   
    31    16    42 1   
    32    17    43 1   
    33    17    44 1   
    34    18    19 ar  
    35    18    23 ar  
    36    19    20 ar  
    37    20    21 ar  
    38    20    45 1   
    39    21    22 ar  
    40    22    23 ar  
    41    22    46 1   
    42    23    47 1   
    43    24    48 1   
    44    24    49 1   
    45    25    26 ar  
    46    25    30 ar  
    47    26    27 ar  
    48    26    50 1   
    49    27    28 ar  
    50    27    51 1   
    51    28    29 ar  
    52    29    30 ar  
    53    29    52 1   
    54    30    53 1   
    55    31    32 1   
    56    31    54 1   
    57    31    55 1   
    58    32    56 1   
    59    32    57 1   
    60    33    34 1   
    61    33    58 1   
    62    33    59 1   
    63    34    60 1   
    64    34    61 1   
    65    35    36 1   
    66    36    62 1   
    67    36    63 1   
    68    36    64 1   
@<TRIPOS>SUBSTRUCTURE
     1 KKK         1 TEMP              0 ****  ****    0 ROOT
