@<TRIPOS>MOLECULE
KKM
   39    41     1     0     0
SMALL
bcc


@<TRIPOS>ATOM
      1 C10          0.0000     0.0000     0.0000 ca         1 KKM      -0.068000
      2 C13          1.6830     0.0010    -4.9310 cc         1 KKM      -0.428800
      3 C17         -1.4560    -0.5880    -8.5660 c3         1 KKM       0.210400
      4 C21          2.8330     0.0010    -5.7450 cc         1 KKM       0.510500
      5 C02          4.2110     0.0010    -2.4690 cc         1 KKM       0.070800
      6 C03          3.5440     0.0010    -1.2790 cd         1 KKM      -0.300300
      7 C04          2.1390     0.0000    -1.2810 cd         1 KKM       0.478800
      8 C05          1.3950     0.0000     0.0000 ca         1 KKM      -0.173500
      9 C06          2.0870     0.0000     1.2110 ca         1 KKM      -0.068000
     10 C07          1.3890     0.0000     2.4010 ca         1 KKM      -0.110000
     11 C08          0.0050    -0.0000     2.3950 ca         1 KKM      -0.081000
     12 C09         -0.6860    -0.0000     1.1960 ca         1 KKM      -0.110000
     13 N11          1.4790     0.0010    -2.4320 nd         1 KKM      -0.514000
     14 C12          2.1290     0.0020    -3.5940 cd         1 KKM       0.267500
     15 N15          0.0140     0.0110    -6.7060 ns         1 KKM      -0.197900
     16 C16         -1.3780     0.0160    -7.1620 c3         1 KKM       0.017700
     17 C19         -1.8980     1.4540    -7.1970 c3         1 KKM      -0.013100
     18 N23          3.4950     0.0010    -3.6360 na         1 KKM       0.503200
     19 N22          3.8890     0.0020    -4.9780 nd         1 KKM      -0.723100
     20 H101        -0.5430    -0.0000    -0.9370 ha         1 KKM       0.122000
     21 H171        -1.0060    -1.5740    -8.5610 h1         1 KKM      -0.007300
     22 H172        -2.4930    -0.6660    -8.8680 h1         1 KKM      -0.007300
     23 H211         2.8390     0.0020    -6.8280 h4         1 KKM       0.013800
     24 H011         5.8800     0.8770    -2.3440 ho         1 KKM       0.421000
     25 H031         4.0840    -0.1660    -0.3550 ha         1 KKM       0.151000
     26 H061         3.1700     0.0000     1.2170 ha         1 KKM       0.122000
     27 H071         1.9250     0.0000     3.3420 ha         1 KKM       0.106000
     28 H081        -0.5380    -0.0000     3.3320 ha         1 KKM       0.102000
     29 H091        -1.7700    -0.0010     1.1970 ha         1 KKM       0.106000
     30 H151         0.7600     0.0120    -7.3750 hn         1 KKM       0.179500
     31 H161        -1.9830    -0.5700    -6.4820 h1         1 KKM       0.057700
     32 H181        -0.7930    -0.1290   -10.3490 ho         1 KKM       0.393000
     33 H192        -1.1430     2.1010    -7.6290 hc         1 KKM       0.014033
     34 H193        -2.7980     1.4980    -7.7980 hc         1 KKM       0.014033
     35 H191        -2.1200     1.7830    -6.1890 hc         1 KKM       0.014033
     36 C14          0.2920     0.0070    -5.3870 c          1 KKM       0.640300
     37 O01          5.5630     0.0020    -2.4960 oh         1 KKM      -0.466100
     38 O18         -0.7540     0.2500    -9.4860 oh         1 KKM      -0.596800
     39 O20         -0.6150     0.0060    -4.5750 o          1 KKM      -0.650100
@<TRIPOS>BOND
     1     1     8 ar  
     2     1    12 ar  
     3     1    20 1   
     4     2     4 1   
     5     2    14 2   
     6     2    36 1   
     7     3    16 1   
     8     3    21 1   
     9     3    22 1   
    10     3    38 1   
    11     4    19 2   
    12     4    23 1   
    13     5     6 2   
    14     5    18 1   
    15     5    37 1   
    16     6     7 1   
    17     6    25 1   
    18     7     8 1   
    19     7    13 2   
    20     8     9 ar  
    21     9    10 ar  
    22     9    26 1   
    23    10    11 ar  
    24    10    27 1   
    25    11    12 ar  
    26    11    28 1   
    27    12    29 1   
    28    13    14 1   
    29    14    18 1   
    30    15    16 1   
    31    15    30 1   
    32    15    36 1   
    33    16    17 1   
    34    16    31 1   
    35    17    33 1   
    36    17    34 1   
    37    17    35 1   
    38    18    19 1   
    39    24    37 1   
    40    32    38 1   
    41    36    39 2   
@<TRIPOS>SUBSTRUCTURE
     1 KKM         1 TEMP              0 ****  ****    0 ROOT
