@<TRIPOS>MOLECULE
KKN
   17    18     1     0     0
SMALL
bcc


@<TRIPOS>ATOM
      1 O01         0.0030   -0.0300   -0.0760 os        1 KKN     -0.383800
      2 C02         1.3850   -0.0040    0.0110 cc        1 KKN      0.315600
      3 C03         1.9800    0.0150    1.2170 cd        1 KKN     -0.069200
      4 C04         1.2270    0.0090    2.4880 cd        1 KKN      0.009000
      5 C05        -0.1950   -0.0190    2.3440 cd        1 KKN     -0.265300
      6 C06        -0.7250   -0.0370    1.0950 cc        1 KKN      0.341600
      7 C07         2.1260    0.0330    3.5160 cc        1 KKN     -0.205400
      8 C08         3.4780    0.0550    2.9040 c         1 KKN      0.717800
      9 O09         4.6300    0.0790    3.3050 o         1 KKN     -0.545500
     10 O10         3.3490    0.0430    1.4820 os        1 KKN     -0.322200
     11 C11         1.9180    0.0390    4.9620 c3        1 KKN     -0.026900
     12 H1          1.8370   -0.0020   -0.9900 h4        1 KKN      0.066100
     13 H2         -0.8340   -0.0250    3.2370 ha        1 KKN      0.164000
     14 H3         -1.7980   -0.0590    0.8440 h4        1 KKN      0.048100
     15 H5          2.4220   -0.8440    5.4320 hc        1 KKN      0.052700
     16 H6          0.8280    0.0020    5.2060 hc        1 KKN      0.052700
     17 H7          2.3560    0.9660    5.4150 hc        1 KKN      0.052700
@<TRIPOS>BOND
     1    1    2 1   
     2    1    6 1   
     3    2    3 2   
     4    2   12 1   
     5    3    4 1   
     6    3   10 1   
     7    4    5 1   
     8    4    7 2   
     9    5    6 2   
    10    5   13 1   
    11    6   14 1   
    12    7    8 1   
    13    7   11 1   
    14    8    9 2   
    15    8   10 1   
    16   11   15 1   
    17   11   16 1   
    18   11   17 1   
@<TRIPOS>SUBSTRUCTURE
     1 KKN         1 TEMP              0 ****  ****    0 ROOT
