@<TRIPOS>MOLECULE
molecule
   17    18     1     0     0
SMALL
bcc


@<TRIPOS>ATOM
      1 O01          0.0000     0.0000     0.0000 os         1 KKN      -0.350800
      2 C02          1.3400     0.0000     0.0000 cc         1 KKN       0.335600
      3 C03          2.0230     0.0000     1.1670 cd         1 KKN      -0.072200
      4 C04          1.2570     0.0000     2.4200 cd         1 KKN      -0.023000
      5 C05         -0.1550    -0.0010     2.3410 cd         1 KKN      -0.272300
      6 C06         -0.7300     0.0000     1.1210 cc         1 KKN       0.343600
      7 C07          2.1990    -0.0000     3.4450 cc         1 KKN      -0.267400
      8 C08          3.4530    -0.0000     2.8490 c          1 KKN       0.740800
      9 O09          4.5150    -0.0000     3.4540 o          1 KKN      -0.576500
     10 O10          3.3300    -0.0000     1.5080 os         1 KKN      -0.281200
     11 C11          1.9100    -0.0000     4.9250 c3         1 KKN      -0.005900
     12 H1           1.8790    -0.0030    -0.9400 h4         1 KKN       0.069100
     13 H2          -0.7470     0.2280     3.2190 ha         1 KKN       0.162000
     14 H3          -1.8110     0.0010     1.0470 h4         1 KKN       0.058100
     15 H5           1.9230     1.0180     5.2950 hc         1 KKN       0.047033
     16 H6           0.9340    -0.4360     5.1020 hc         1 KKN       0.047033
     17 H7           2.6640    -0.5820     5.4400 hc         1 KKN       0.047033
@<TRIPOS>BOND
     1     6     1 1
     2     6     5 2
     3     1     2 1
     4     5     4 1
     5     2     3 2
     6     4     3 1
     7     4     7 2
     8     3    10 1
     9     7    11 1
    10     7     8 1
    11    10     8 1
    12     8     9 2
    13     2    12 1
    14     5    13 1
    15     6    14 1
    16    11    15 1
    17    11    16 1
    18    11    17 1
@<TRIPOS>SUBSTRUCTURE
     1 KKN         1 TEMP              0 ****  ****    0 ROOT
