@<TRIPOS>MOLECULE
KKP
   32    34     1     0     0
SMALL
bcc


@<TRIPOS>ATOM
      1 C10          0.0000     0.0000     0.0000 ca         1 KKP      -0.067500
      2 C13          1.6820     0.0010    -4.9310 cc         1 KKP      -0.429800
      3 O01          5.5630     0.0010    -2.4970 oh         1 KKP      -0.466100
      4 C02          4.2110     0.0010    -2.4690 cc         1 KKP       0.070800
      5 C03          3.5430    -0.0000    -1.2800 cd         1 KKP      -0.300300
      6 C04          2.1380     0.0000    -1.2820 cd         1 KKP       0.479800
      7 C05          1.3950     0.0000     0.0000 ca         1 KKP      -0.174500
      8 C06          2.0860     0.0000     1.2110 ca         1 KKP      -0.067500
      9 C07          1.3880     0.0010     2.4010 ca         1 KKP      -0.110000
     10 C08          0.0050     0.0010     2.3940 ca         1 KKP      -0.081000
     11 C09         -0.6870     0.0060     1.1960 ca         1 KKP      -0.110000
     12 N11          1.4780    -0.0000    -2.4320 nd         1 KKP      -0.514000
     13 C12          2.1290    -0.0000    -3.5940 cd         1 KKP       0.268500
     14 N15          0.0140     0.0120    -6.7060 ns         1 KKP      -0.207900
     15 C16         -1.3780     0.0170    -7.1630 c3         1 KKP       0.091300
     16 O17         -0.6160     0.0060    -4.5750 o          1 KKP      -0.642100
     17 C18          2.8320     0.0010    -5.7450 cc         1 KKP       0.508500
     18 N20          3.4940     0.0000    -3.6350 na         1 KKP       0.504200
     19 N19          3.8890     0.0010    -4.9780 nd         1 KKP      -0.723100
     20 H101        -0.5430     0.0040    -0.9380 ha         1 KKP       0.122000
     21 H011         5.8810     0.8760    -2.3480 ho         1 KKP       0.421000
     22 H031         4.0830    -0.1690    -0.3560 ha         1 KKP       0.152000
     23 H061         3.1690     0.0000     1.2170 ha         1 KKP       0.122000
     24 H071         1.9250    -0.0010     3.3420 ha         1 KKP       0.106000
     25 H081        -0.5380     0.0040     3.3310 ha         1 KKP       0.102000
     26 H091        -1.7710     0.0060     1.1980 ha         1 KKP       0.106000
     27 H151         0.7600     0.0310    -7.3740 hn         1 KKP       0.166500
     28 H163        -1.8780     0.9020    -6.7880 h1         1 KKP       0.007033
     29 H161        -1.8830    -0.8670    -6.7920 h1         1 KKP       0.007033
     30 H162        -1.4030     0.0190    -8.2460 h1         1 KKP       0.007033
     31 H181         2.8380     0.0010    -6.8280 h4         1 KKP       0.010800
     32 C14          0.2910     0.0060    -5.3870 c          1 KKP       0.639300
@<TRIPOS>BOND
     1     1     7 ar  
     2     1    11 ar  
     3     1    20 1   
     4     2    13 2   
     5     2    17 1   
     6     2    32 1   
     7     3     4 1   
     8     3    21 1   
     9     4     5 2   
    10     4    18 1   
    11     5     6 1   
    12     5    22 1   
    13     6     7 1   
    14     6    12 2   
    15     7     8 ar  
    16     8     9 ar  
    17     8    23 1   
    18     9    10 ar  
    19     9    24 1   
    20    10    11 ar  
    21    10    25 1   
    22    11    26 1   
    23    12    13 1   
    24    13    18 1   
    25    14    15 1   
    26    14    27 1   
    27    14    32 1   
    28    15    28 1   
    29    15    29 1   
    30    15    30 1   
    31    16    32 2   
    32    17    19 2   
    33    17    31 1   
    34    18    19 1   
@<TRIPOS>SUBSTRUCTURE
     1 KKP         1 TEMP              0 ****  ****    0 ROOT
