@<TRIPOS>MOLECULE
molecule
   76    81     1     0     0
SMALL
bcc


@<TRIPOS>ATOM
      1 C1           0.0000     0.0000     0.0000 c3         1 KKR      -0.108400
      2 C2           1.5060     0.0000     0.0000 c2         1 KKR       0.150600
      3 C3           2.2610     0.0000     1.3040 c3         1 KKR      -0.108400
      4 C4           2.1740     0.0010    -1.1560 ce         1 KKR      -0.550200
      5 C5           1.4420     0.0010    -2.4220 c          1 KKR       0.534300
      6 O6           0.2290     0.0010    -2.4220 o          1 KKR      -0.608100
      7 C7           2.1950     0.0020    -3.7280 c3         1 KKR      -0.146400
      8 C8           1.2000     0.0020    -4.8900 c3         1 KKR      -0.152400
      9 C9           1.9540     0.0030    -6.1960 c          1 KKR       0.661100
     10 O10          3.1660     0.0030    -6.1970 o          1 KKR      -0.613100
     11 N11          1.2790     0.0030    -7.3630 n          1 KKR      -0.496800
     12 C12          1.9950     0.0040    -8.6480 c3         1 KKR       0.108500
     13 C13          1.4350    -1.1280    -9.5160 c3         1 KKR       0.139800
     14 N14         -0.0230    -0.9890    -9.6180 n3         1 KKR      -0.725600
     15 C15         -0.6640    -1.1290    -8.3030 c3         1 KKR       0.139800
     16 C16         -0.1910    -0.0040    -7.3850 c3         1 KKR       0.108500
     17 C17         -0.5790    -1.9510   -10.5790 c3         1 KKR       0.232000
     18 C18         -2.0250    -1.6210   -10.8410 cc         1 KKR      -0.017600
     19 C19         -2.4450    -0.8060   -11.7940 cd         1 KKR      -0.229800
     20 C20         -3.8810    -0.6360   -11.8630 ca         1 KKR       0.504100
     21 N21         -4.6270     0.1130   -12.7030 nb         1 KKR      -0.732000
     22 C22         -5.9420     0.1370   -12.6060 cp         1 KKR       0.772500
     23 N23         -6.5990    -0.5650   -11.6870 nb         1 KKR      -0.779000
     24 C24         -5.9460    -1.3270   -10.8210 ca         1 KKR       0.696200
     25 C25         -4.5420    -1.3840   -10.8850 ca         1 KKR      -0.288700
     26 S26         -3.3710    -2.2750    -9.9250 ss         1 KKR      -0.082500
     27 N27         -6.6370    -2.0550    -9.8660 nh         1 KKR      -0.696300
     28 C28         -8.0860    -1.8420    -9.9870 c3         1 KKR       0.130300
     29 C29         -8.8050    -2.6160    -8.8780 c3         1 KKR       0.135400
     30 O30         -8.4520    -4.0000    -8.9650 os         1 KKR      -0.421600
     31 C31         -7.0470    -4.2440    -8.8500 c3         1 KKR       0.135400
     32 C32         -6.3110    -3.4860    -9.9580 c3         1 KKR       0.130300
     33 C33         -6.7130     0.9740   -13.5530 cp         1 KKR      -0.075500
     34 C34         -8.0970     1.0220   -13.4770 ca         1 KKR      -0.124000
     35 C35         -8.8220     1.8060   -14.3610 ca         1 KKR      -0.101000
     36 C36         -8.1840     2.5490   -15.3290 ca         1 KKR      -0.140000
     37 C37         -6.7950     2.5220   -15.4290 ca         1 KKR      -0.034200
     38 N38         -5.8940     3.1360   -16.2620 na         1 KKR      -0.054100
     39 N39         -4.6090     2.7260   -15.8870 nc         1 KKR      -0.511100
     40 C40         -4.6850     1.9050   -14.8790 cd         1 KKR       0.396800
     41 C41         -6.0460     1.7360   -14.5350 ca         1 KKR      -0.213900
     42 H11C        -0.3610    -0.0270     1.0210 hc         1 KKR       0.068700
     43 H12C        -0.3610     0.8980    -0.4870 hc         1 KKR       0.068700
     44 H13C        -0.3610    -0.8710    -0.5330 hc         1 KKR       0.068700
     45 H31C         1.9830    -0.8730     1.8820 hc         1 KKR       0.068700
     46 H32C         2.0160     0.8950     1.8630 hc         1 KKR       0.068700
     47 H33C         3.3260    -0.0220     1.1060 hc         1 KKR       0.068700
     48 H4C          1.7100     0.8760    -1.5930 ha         1 KKR       0.262000
     49 H71C         2.8170     0.8870    -3.7850 hc         1 KKR       0.090700
     50 H72C         2.8180    -0.8820    -3.7860 hc         1 KKR       0.090700
     51 H81C         0.5780    -0.8830    -4.8330 hc         1 KKR       0.069700
     52 H82C         0.5770     0.8860    -4.8330 hc         1 KKR       0.069700
     53 H121         3.0520    -0.1580    -8.4760 h1         1 KKR       0.065450
     54 H122         1.8430     0.9540    -9.1480 h1         1 KKR       0.065450
     55 H161        -0.5680    -0.1710    -6.3840 h1         1 KKR       0.065450
     56 H162        -0.5520     0.9460    -7.7610 h1         1 KKR       0.065450
     57 H131         1.8730    -1.0720   -10.5060 h1         1 KKR       0.045950
     58 H132         1.6760    -2.0820    -9.0620 h1         1 KKR       0.045950
     59 H151        -0.3930    -2.0840    -7.8700 h1         1 KKR       0.045950
     60 H152        -1.7400    -1.0710    -8.4190 h1         1 KKR       0.045950
     61 H171        -0.0220    -1.8970   -11.5060 h1         1 KKR       0.050700
     62 H172        -0.5040    -2.9520   -10.1710 h1         1 KKR       0.050700
     63 H19         -1.7660    -0.3030   -12.4720 ha         1 KKR       0.170000
     64 H281        -8.4240    -2.1980   -10.9530 h1         1 KKR       0.062700
     65 H282        -8.3040    -0.7850    -9.8880 h1         1 KKR       0.062700
     66 H321        -5.2430    -3.6210    -9.8390 h1         1 KKR       0.062700
     67 H322        -6.6240    -3.8660   -10.9230 h1         1 KKR       0.062700
     68 H291        -9.8760    -2.5090    -8.9990 h1         1 KKR       0.058200
     69 H292        -8.5030    -2.2270    -7.9130 h1         1 KKR       0.058200
     70 H311        -6.8560    -5.3050    -8.9500 h1         1 KKR       0.058200
     71 H312        -6.6990    -3.8970    -7.8840 h1         1 KKR       0.058200
     72 H34         -8.6150     0.4430   -12.7210 ha         1 KKR       0.152000
     73 H35         -9.9030     1.8330   -14.2900 ha         1 KKR       0.136000
     74 H36         -8.7640     3.1570   -16.0130 ha         1 KKR       0.130000
     75 H38         -6.1160     3.7650   -17.0070 hn         1 KKR       0.331700
     76 H40         -3.8460     1.4320   -14.3840 h4         1 KKR       0.086800
@<TRIPOS>BOND
     1     1     2 1
     2     2     3 1
     3     2     4 2
     4     4     5 1
     5     5     6 2
     6     5     7 1
     7     7     8 1
     8     8     9 1
     9     9    10 2
    10     9    11 1
    11    11    12 1
    12    11    16 1
    13    12    13 1
    14    13    14 1
    15    14    15 1
    16    14    17 1
    17    15    16 1
    18    17    18 1
    19    18    19 2
    20    18    26 1
    21    19    20 1
    22    20    21 ar
    23    20    25 ar
    24    21    22 ar
    25    22    23 ar
    26    22    33 1
    27    23    24 ar
    28    24    25 ar
    29    24    27 1
    30    25    26 1
    31    27    28 1
    32    27    32 1
    33    28    29 1
    34    29    30 1
    35    30    31 1
    36    31    32 1
    37    33    34 ar
    38    33    41 ar
    39    34    35 ar
    40    35    36 ar
    41    36    37 ar
    42    37    38 1
    43    37    41 ar
    44    38    39 1
    45    39    40 2
    46    40    41 1
    47     1    42 1
    48     1    43 1
    49     1    44 1
    50     3    45 1
    51     3    46 1
    52     3    47 1
    53     4    48 1
    54     7    49 1
    55     7    50 1
    56     8    51 1
    57     8    52 1
    58    12    53 1
    59    12    54 1
    60    16    55 1
    61    16    56 1
    62    13    57 1
    63    13    58 1
    64    15    59 1
    65    15    60 1
    66    17    61 1
    67    17    62 1
    68    19    63 1
    69    28    64 1
    70    28    65 1
    71    32    66 1
    72    32    67 1
    73    29    68 1
    74    29    69 1
    75    31    70 1
    76    31    71 1
    77    34    72 1
    78    35    73 1
    79    36    74 1
    80    38    75 1
    81    40    76 1
@<TRIPOS>SUBSTRUCTURE
     1 KKR         1 TEMP              0 ****  ****    0 ROOT
