@<TRIPOS>MOLECULE
KKT
   48    49     1     0     0
SMALL
bcc


@<TRIPOS>ATOM
      1 CAW          0.0000     0.0000     0.0000 ca         1 KKT      -0.088500
      2 CAX          1.3830     0.0000     0.0000 ca         1 KKT      -0.077500
      3 CBA          2.0730     0.0000     1.1980 ca         1 KKT      -0.061000
      4 CAZ          1.3810     0.0000     2.3940 ca         1 KKT      -0.077500
      5 CAY         -0.0020     0.0010     2.3940 ca         1 KKT      -0.088500
      6 CAV         -0.6920     0.0000     1.1960 ca         1 KKT      -0.172300
      7 CAU         -2.1990     0.0010     1.1950 c3         1 KKT       0.089300
      8 NAN         -2.6880    -1.3800     1.1940 n          1 KKT       0.051000
      9 CAO         -2.9170    -2.0250     2.3880 cc         1 KKT      -0.384400
     10 NAP         -2.6890    -1.3800     3.5820 nz         1 KKT       0.228600
     11 CAM         -2.9160    -2.0070     0.0270 c          1 KKT       0.594500
     12 OAL         -2.7130    -1.4210    -1.0180 o          1 KKT      -0.641500
     13 NAD         -3.3640    -3.2760    -0.0030 ns         1 KKT      -0.085500
     14 CAE         -3.5980    -3.9480     1.1410 c          1 KKT       0.600700
     15 OAA         -4.0050    -5.0980     1.1050 o          1 KKT      -0.596500
     16 CAF         -3.3740    -3.3150     2.3770 cd         1 KKT       0.074800
     17 NAG         -3.6180    -4.0010     3.5890 nh         1 KKT      -0.382300
     18 CAB         -2.7260    -3.8030     4.7350 c3         1 KKT       0.240100
     19 SAH         -4.9110    -5.0280     3.7140 s6         1 KKT       0.951900
     20 OAC         -5.3630    -4.8610     5.0510 o          1 KKT      -0.547300
     21 OAQ         -5.7380    -4.6840     2.6110 o          1 KKT      -0.547300
     22 CAI         -4.2000    -6.6810     3.4860 c3         1 KKT       0.015400
     23 CAJ         -5.3090    -7.7300     3.5810 c3         1 KKT       0.002600
     24 CAK         -4.7090    -9.1260     3.3880 c3         1 KKT      -0.023400
     25 CAT         -5.8190   -10.1750     3.4830 c3         1 KKT       0.009900
     26 HAW         -0.5410    -0.0010    -0.9380 ha         1 KKT       0.096500
     27 HAX          1.9250     0.0000    -0.9380 ha         1 KKT       0.119000
     28 HBA          3.1560    -0.0010     1.1980 ha         1 KKT       0.121000
     29 HAZ          1.9230     0.0010     3.3320 ha         1 KKT       0.119000
     30 HAY         -0.5440     0.0010     3.3320 ha         1 KKT       0.096500
     31 HAU1        -2.5590     0.5130     0.3110 h1         1 KKT       0.051700
     32 HAU2        -2.5600     0.5120     2.0800 h1         1 KKT       0.051700
     33 HAP1        -2.6520    -0.3920     3.4260 hn         1 KKT       0.232467
     34 HAP2        -1.8180    -1.6890     3.9670 hn         1 KKT       0.232467
     35 HAD         -3.5280    -3.7230    -0.8830 hn         1 KKT       0.231500
     36 HAB1        -3.0990    -2.9920     5.3480 h1         1 KKT       0.016700
     37 HAB2        -2.6870    -4.7120     5.3240 h1         1 KKT       0.016700
     38 HAB3        -1.7310    -3.5610     4.3810 h1         1 KKT       0.016700
     39 HAI1        -3.7290    -6.7410     2.5130 h1         1 KKT       0.078700
     40 HAI2        -3.4610    -6.8660     4.2570 h1         1 KKT       0.078700
     41 HAJ1        -6.0480    -7.5450     2.8110 hc         1 KKT       0.033700
     42 HAJ2        -5.7800    -7.6710     4.5550 hc         1 KKT       0.033700
     43 HAK1        -3.9700    -9.3110     4.1580 hc         1 KKT       0.014700
     44 HAK2        -4.2380    -9.1850     2.4140 hc         1 KKT       0.014700
     45 HAT1        -6.2910   -10.1140     4.4560 hc         1 KKT       0.007700
     46 HAT2        -5.3940   -11.1620     3.3490 hc         1 KKT       0.007700
     47 HAT3        -6.5560    -9.9910     2.7110 hc         1 KKT       0.007700
     48 HAP3        -3.4340    -1.5820     4.2180 hn         1 KKT       0.232467
@<TRIPOS>BOND
     1     1     2 ar  
     2     1     6 ar  
     3     1    26 1   
     4     2     3 ar  
     5     2    27 1   
     6     3     4 ar  
     7     3    28 1   
     8     4     5 ar  
     9     4    29 1   
    10     5     6 ar  
    11     5    30 1   
    12     6     7 1   
    13     7     8 1   
    14     7    31 1   
    15     7    32 1   
    16     8     9 1   
    17     8    11 1   
    18     9    10 1   
    19     9    16 2   
    20    10    33 1   
    21    10    34 1   
    22    10    48 1   
    23    11    12 2   
    24    11    13 1   
    25    13    14 1   
    26    13    35 1   
    27    14    15 2   
    28    14    16 1   
    29    16    17 1   
    30    17    18 1   
    31    17    19 1   
    32    18    36 1   
    33    18    37 1   
    34    18    38 1   
    35    19    20 2   
    36    19    21 2   
    37    19    22 1   
    38    22    23 1   
    39    22    39 1   
    40    22    40 1   
    41    23    24 1   
    42    23    41 1   
    43    23    42 1   
    44    24    25 1   
    45    24    43 1   
    46    24    44 1   
    47    25    45 1   
    48    25    46 1   
    49    25    47 1   
@<TRIPOS>SUBSTRUCTURE
     1 KKT         1 TEMP              0 ****  ****    0 ROOT
