@<TRIPOS>MOLECULE
molecule
   31    31     1     0     0
SMALL
bcc


@<TRIPOS>ATOM
      1 O3           0.0000     0.0000     0.0000 o          1 KLG      -0.562100
      2 C10          1.2130     0.0000     0.0000 c          1 KLG       0.668100
      3 N1           1.8870     0.0000     1.1680 ns         1 KLG      -0.472400
      4 O4           1.1780     0.0000     2.3940 oh         1 KLG      -0.356100
      5 C9           1.9660    -0.0080    -1.3050 c3         1 KLG       0.170800
      6 N2           1.0140    -0.0130    -2.4180 n7         1 KLG      -0.901100
      7 S1           1.5290     0.3500    -3.9500 s6         1 KLG       1.327900
      8 O1           0.3530     0.2720    -4.7430 o          1 KLG      -0.621800
      9 O2           2.2320     1.5760    -3.8010 o          1 KLG      -0.621800
     10 C8           2.6730    -0.9930    -4.3730 c3         1 KLG      -0.227600
     11 C7           3.2240    -0.7680    -5.7830 c3         1 KLG      -0.011100
     12 C6           4.1740    -1.8840    -6.1340 ca         1 KLG      -0.082300
     13 C3           5.5180    -1.7660    -5.8350 ca         1 KLG      -0.122500
     14 C1           6.3900    -2.7900    -6.1580 ca         1 KLG      -0.125000
     15 C5           3.7000    -3.0270    -6.7510 ca         1 KLG      -0.122500
     16 C4           4.5720    -4.0490    -7.0740 ca         1 KLG      -0.125000
     17 C2           5.9170    -3.9310    -6.7790 ca         1 KLG      -0.127000
     18 H9           2.5890     0.8760    -1.3680 h1         1 KLG       0.062700
     19 H9A          2.5880    -0.8930    -1.3580 h1         1 KLG       0.062700
     20 HN2          0.0580    -0.2650    -2.2580 hn         1 KLG       0.482800
     21 H8           2.1480    -1.9390    -4.3370 h1         1 KLG       0.098200
     22 H8A          3.4920    -1.0070    -3.6640 h1         1 KLG       0.098200
     23 H7           3.7500     0.1780    -5.8190 hc         1 KLG       0.063200
     24 H7A          2.4050    -0.7540    -6.4920 hc         1 KLG       0.063200
     25 H3           5.8890    -0.8730    -5.3480 ha         1 KLG       0.131500
     26 H1           7.4440    -2.6970    -5.9250 ha         1 KLG       0.131500
     27 H5           2.6460    -3.1200    -6.9820 ha         1 KLG       0.131500
     28 H4           4.2010    -4.9440    -7.5590 ha         1 KLG       0.131500
     29 H2           6.6000    -4.7320    -7.0320 ha         1 KLG       0.131000
     30 H13          2.8870     0.0140     1.1680 hn         1 KLG       0.320500
     31 H14          1.7900    -0.0320     3.1100 ho         1 KLG       0.401000
@<TRIPOS>BOND
     1     1     2 2
     2     2     3 1
     3     3     4 1
     4     5     2 1
     5     5    18 1
     6     5    19 1
     7     6     5 1
     8     6     7 1
     9     6    20 1
    10     7     9 2
    11     7    10 1
    12     8     7 2
    13    10    11 1
    14    10    21 1
    15    10    22 1
    16    11    12 1
    17    11    23 1
    18    11    24 1
    19    12    15 ar
    20    13    12 ar
    21    13    14 ar
    22    13    25 1
    23    14    17 ar
    24    14    26 1
    25    15    16 ar
    26    15    27 1
    27    16    28 1
    28    17    16 ar
    29    17    29 1
    30     3    30 1
    31     4    31 1
@<TRIPOS>SUBSTRUCTURE
     1 KLG         1 TEMP              0 ****  ****    0 ROOT
