@<TRIPOS>MOLECULE
KLH
   38    39     1     0     0
SMALL
bcc


@<TRIPOS>ATOM
      1 O4           0.0000     0.0000     0.0000 o          1 KLH      -0.555100
      2 C13          1.2130     0.0000     0.0000 c          1 KLH       0.539100
      3 N1           1.8860     0.0050    -1.1680 ns         1 KLH      -0.068400
      4 O2           1.1760     0.0120    -2.3940 oh         1 KLH      -0.434100
      5 C1           1.9670     0.0000     1.3040 c3         1 KLH       0.159500
      6 N2           1.0210     0.0180     2.4290 n3         1 KLH      -0.537500
      7 C4           1.2380     1.2500     3.2100 c3         1 KLH       0.252800
      8 C6           2.7030     1.6560     2.9100 c3         1 KLH      -0.038400
      9 C3           2.8300     1.2750     1.4110 c3         1 KLH      -0.033400
     10 S1          -0.1030    -1.1510     2.7640 s6         1 KLH       0.979900
     11 O1          -1.1230    -0.4640     3.4750 o          1 KLH      -0.561800
     12 O3          -0.3680    -1.7530     1.5040 o          1 KLH      -0.561800
     13 C7           0.7620    -2.3130     3.8550 c3         1 KLH      -0.022600
     14 C8          -0.1830    -3.4530     4.2390 c3         1 KLH       0.067900
     15 C9           0.5370    -4.4180     5.1460 ca         1 KLH      -0.100300
     16 C10          0.5010    -4.2360     6.5160 ca         1 KLH      -0.094500
     17 C2           1.1610    -5.1210     7.3470 ca         1 KLH      -0.099000
     18 C11          1.2270    -5.4880     4.6080 ca         1 KLH      -0.094500
     19 C12          1.8860    -6.3730     5.4400 ca         1 KLH      -0.099000
     20 C5           1.8560    -6.1880     6.8090 ca         1 KLH      -0.101000
     21 H1           2.5990    -0.8780     1.3710 h1         1 KLH       0.019700
     22 H4           1.1130     1.0500     4.2680 h1         1 KLH       0.017700
     23 H4A          0.5580     2.0270     2.8830 h1         1 KLH       0.017700
     24 H6           3.3940     1.0820     3.5140 hc         1 KLH       0.022200
     25 H6A          2.8440     2.7210     3.0500 hc         1 KLH       0.022200
     26 H3           3.8620     1.0590     1.1590 hc         1 KLH       0.025200
     27 H3A          2.4300     2.0610     0.7820 hc         1 KLH       0.025200
     28 H7           1.6260    -2.7170     3.3410 h1         1 KLH       0.064700
     29 H7A          1.0850    -1.7950     4.7500 h1         1 KLH       0.064700
     30 H8          -1.0460    -3.0490     4.7540 hc         1 KLH       0.032700
     31 H8A         -0.5060    -3.9710     3.3440 hc         1 KLH       0.032700
     32 H10         -0.0440    -3.4010     6.9380 ha         1 KLH       0.107500
     33 H2           1.1350    -4.9780     8.4210 ha         1 KLH       0.103000
     34 H11          1.2500    -5.6330     3.5350 ha         1 KLH       0.107500
     35 H12          2.4290    -7.2110     5.0190 ha         1 KLH       0.103000
     36 H5           2.3740    -6.8810     7.4610 ha         1 KLH       0.103000
     37 H17          2.8860    -0.0390    -1.1700 hn         1 KLH       0.149500
     38 H18          1.7340    -0.3110    -3.0820 ho         1 KLH       0.387000
@<TRIPOS>BOND
     1     1     2 2   
     2     2     3 1   
     3     2     5 1   
     4     3     4 1   
     5     3    37 1   
     6     4    38 1   
     7     5     6 1   
     8     5     9 1   
     9     5    21 1   
    10     6     7 1   
    11     6    10 1   
    12     7     8 1   
    13     7    22 1   
    14     7    23 1   
    15     8     9 1   
    16     8    24 1   
    17     8    25 1   
    18     9    26 1   
    19     9    27 1   
    20    10    11 2   
    21    10    12 2   
    22    10    13 1   
    23    13    14 1   
    24    13    28 1   
    25    13    29 1   
    26    14    15 1   
    27    14    30 1   
    28    14    31 1   
    29    15    16 ar  
    30    15    18 ar  
    31    16    17 ar  
    32    16    32 1   
    33    17    20 ar  
    34    17    33 1   
    35    18    19 ar  
    36    18    34 1   
    37    19    20 ar  
    38    19    35 1   
    39    20    36 1   
@<TRIPOS>SUBSTRUCTURE
     1 KLH         1 TEMP              0 ****  ****    0 ROOT
