@<TRIPOS>MOLECULE
KLI
   69    74     1     0     0
SMALL
bcc


@<TRIPOS>ATOM
      1 N01         0.1550   -0.1830    0.1620 na        1 KLI     -0.517800
      2 N02        -0.2450    0.1980    4.9950 nc        1 KLI     -0.647000
      3 N03        -1.7000   -1.2790    4.0050 nd        1 KLI     -0.381300
      4 N04         4.3940    0.0700   -2.3850 nh        1 KLI     -0.619000
      5 N05         4.7040    0.3380   -5.2640 n3        1 KLI     -0.734600
      6 C06         4.3960   -0.1650    0.0670 ca        1 KLI      0.116900
      7 C07         3.6700   -0.0520   -1.1530 ca        1 KLI      0.111600
      8 C08         2.2690   -0.0680   -1.1060 ca        1 KLI     -0.201000
      9 C09         1.5620   -0.1960    0.1090 ca        1 KLI      0.175600
     10 C10         2.3040   -0.3180    1.3130 ca        1 KLI     -0.172600
     11 C11         3.7000   -0.2980    1.2750 ca        1 KLI     -0.091000
     12 C12        -0.4790   -0.3250    1.3810 cd        1 KLI      0.150000
     13 C13         0.1810   -0.4360    2.5740 cc        1 KLI     -0.318000
     14 C14         1.6430   -0.4790    2.6280 c         1 KLI      0.601900
     15 C15        -0.5850   -0.5220    3.8080 cc        1 KLI      0.612800
     16 C16        -1.1810   -0.1670    5.8650 cd        1 KLI      0.503700
     17 C17        -0.6670   -0.1440   -1.0310 c3        1 KLI      0.255100
     18 C18        -1.0700   -1.4920   -1.5620 ca        1 KLI     -0.132300
     19 C19        -0.2460   -2.1880   -2.4490 ca        1 KLI     -0.091000
     20 C20        -0.6320   -3.4220   -2.9660 ca        1 KLI     -0.096000
     21 C21        -1.8590   -3.9740   -2.5940 ca        1 KLI     -0.131300
     22 C22        -2.7050   -3.3090   -1.7100 ca        1 KLI     -0.116000
     23 C23        -2.3080   -2.0620   -1.1900 ca        1 KLI      0.139900
     24 C24        -2.2740   -5.3340   -3.1500 c3        1 KLI      0.687200
     25 C25         4.1920   -1.0720   -3.2690 c3        1 KLI      0.174800
     26 C26         4.9560   -0.9330   -4.5990 c3        1 KLI      0.165800
     27 C27         4.9350    1.4700   -4.3780 c3        1 KLI      0.165800
     28 C28         4.1700    1.3510   -3.0460 c3        1 KLI      0.174800
     29 C29         5.4210    0.4590   -6.5130 c3        1 KLI      0.156100
     30 C30        -1.4410    0.1620    7.2850 c3        1 KLI     -0.061400
     31 C31        -1.7160    1.6130    7.4860 ca        1 KLI     -0.098300
     32 C32        -2.9890    2.0370    7.8810 ca        1 KLI     -0.111000
     33 C33        -3.2390    3.3910    8.1000 ca        1 KLI     -0.132000
     34 C34        -2.2210    4.3280    7.9240 ca        1 KLI     -0.122000
     35 C35        -0.9510    3.9080    7.5270 ca        1 KLI     -0.132000
     36 C36        -0.6960    2.5550    7.3090 ca        1 KLI     -0.111000
     37 O37         2.2970   -0.6610    3.6630 o         1 KLI     -0.531100
     38 O38        -2.0870   -1.0830    5.2430 os        1 KLI     -0.146100
     39 F39        -1.8330   -6.4000   -2.4040 f         1 KLI     -0.230967
     40 F40        -3.6310   -5.5220   -3.2410 f         1 KLI     -0.230967
     41 F41        -1.8090   -5.5920   -4.4160 f         1 KLI     -0.230967
     42 F42        -3.1300   -1.4120   -0.3330 f         1 KLI     -0.129900
     43 F43         5.7480   -0.1510    0.0870 f         1 KLI     -0.119900
     44 H08         1.7280    0.0240   -2.0620 ha        1 KLI      0.140000
     45 H11         4.2590   -0.3920    2.2230 ha        1 KLI      0.182000
     46 H12        -1.5890   -0.3350    1.3350 h4        1 KLI      0.176000
     47 H17        -1.6060    0.4380   -0.7820 h1        1 KLI      0.080700
     48 H17A       -0.1310    0.4310   -1.8390 h1        1 KLI      0.080700
     49 H19         0.7260   -1.7580   -2.7420 ha        1 KLI      0.151000
     50 H20         0.0230   -3.9620   -3.6690 ha        1 KLI      0.162000
     51 H22        -3.6740   -3.7430   -1.4160 ha        1 KLI      0.175000
     52 H25         4.5800   -1.9860   -2.7380 h1        1 KLI      0.040700
     53 H25A        3.0980   -1.2380   -3.4940 h1        1 KLI      0.040700
     54 H26         6.0560   -1.0910   -4.4010 h1        1 KLI      0.042700
     55 H26A        4.6050   -1.7560   -5.2820 h1        1 KLI      0.042700
     56 H27         6.0330    1.6080   -4.1530 h1        1 KLI      0.042700
     57 H27A        4.5690    2.3970   -4.9000 h1        1 KLI      0.042700
     58 H28         4.5410    2.1590   -2.3570 h1        1 KLI      0.040700
     59 H28A        3.0730    1.5350   -3.2410 h1        1 KLI      0.040700
     60 H29         5.1360   -0.3990   -7.1780 h1        1 KLI      0.035033
     61 H29A        5.1200    1.4180   -7.0100 h1        1 KLI      0.035033
     62 H29B        6.5390    0.4570   -6.3880 h1        1 KLI      0.035033
     63 H30        -2.3110   -0.4580    7.6390 hc        1 KLI      0.085700
     64 H30A       -0.5350   -0.1370    7.8850 hc        1 KLI      0.085700
     65 H32        -3.7970    1.3020    8.0190 ha        1 KLI      0.142000
     66 H33        -4.2410    3.7190    8.4120 ha        1 KLI      0.134000
     67 H34        -2.4190    5.3960    8.0970 ha        1 KLI      0.132000
     68 H35        -0.1460    4.6450    7.3850 ha        1 KLI      0.134000
     69 H36         0.3040    2.2250    6.9870 ha        1 KLI      0.142000
@<TRIPOS>BOND
     1    1    9 1
     2    1   12 1
     3    1   17 1
     4    2   15 1
     5    2   16 2
     6    3   15 2
     7    3   38 1
     8    4    7 1
     9    4   25 1
    10    4   28 1
    11    5   26 1
    12    5   27 1
    13    5   29 1
    14    6    7 ar
    15    6   11 ar
    16    6   43 1
    17    7    8 ar
    18    8    9 ar
    19    8   44 1
    20    9   10 ar
    21   10   11 ar
    22   10   14 1
    23   11   45 1
    24   12   13 2
    25   12   46 1
    26   13   14 1
    27   13   15 1
    28   14   37 2
    29   16   30 1
    30   16   38 1
    31   17   18 1
    32   17   47 1
    33   17   48 1
    34   18   19 ar
    35   18   23 ar
    36   19   20 ar
    37   19   49 1
    38   20   21 ar
    39   20   50 1
    40   21   22 ar
    41   21   24 1
    42   22   23 ar
    43   22   51 1
    44   23   42 1
    45   24   39 1
    46   24   40 1
    47   24   41 1
    48   25   26 1
    49   25   52 1
    50   25   53 1
    51   26   54 1
    52   26   55 1
    53   27   28 1
    54   27   56 1
    55   27   57 1
    56   28   58 1
    57   28   59 1
    58   29   60 1
    59   29   61 1
    60   29   62 1
    61   30   31 1
    62   30   63 1
    63   30   64 1
    64   31   32 ar
    65   31   36 ar
    66   32   33 ar
    67   32   65 1
    68   33   34 ar
    69   33   66 1
    70   34   35 ar
    71   34   67 1
    72   35   36 ar
    73   35   68 1
    74   36   69 1
@<TRIPOS>SUBSTRUCTURE
     1 KLI         1 TEMP              0 ****  ****    0 ROOT
