@<TRIPOS>MOLECULE
KLJ
   35    35     1     0     0
SMALL
bcc


@<TRIPOS>ATOM
      1 C1           0.0000     0.0000     0.0000 c3         1 KLJ       0.074900
      2 N1          -2.7380     3.0460     0.0010 n7         1 KLJ      -0.584100
      3 O1           5.6330     0.0020     0.0010 os         1 KLJ      -0.306900
      4 S1          -2.3240     1.4420    -0.0000 s6         1 KLJ       0.956900
      5 C2           1.5080     0.0000     0.0000 ca         1 KLJ      -0.148300
      6 N2          -3.0380     6.1090    -2.0340 ns         1 KLJ      -0.053400
      7 O2          -3.9510     5.3650    -0.1540 o          1 KLJ      -0.607100
      8 C3           2.1980     0.0000     1.1980 ca         1 KLJ      -0.051000
      9 O3          -2.8220     0.9510     1.2360 o          1 KLJ      -0.580300
     10 C4           3.5790     0.0010     1.2010 ca         1 KLJ      -0.175500
     11 O4          -3.7760     7.3160    -1.9660 oh         1 KLJ      -0.435100
     12 C5           4.2750     0.0010     0.0010 ca         1 KLJ       0.154100
     13 O5          -2.8220     0.9530    -1.2370 o          1 KLJ      -0.580300
     14 C6           2.1980    -0.0050    -1.1980 ca         1 KLJ      -0.051000
     15 C7           3.5790     0.0010    -1.2000 ca         1 KLJ      -0.175500
     16 C8          -0.5090     1.4420     0.0010 c3         1 KLJ      -0.019600
     17 C9           6.2820     0.0030    -1.2720 c3         1 KLJ       0.245700
     18 C10         -3.1860     5.1730    -1.0750 c          1 KLJ       0.561100
     19 C11         -2.4000     3.8890    -1.1490 c3         1 KLJ       0.162800
     20 H1          -0.3610    -0.5100    -0.8850 hc         1 KLJ       0.030700
     21 H1A         -0.3610    -0.5110     0.8840 hc         1 KLJ       0.030700
     22 HN1         -3.1840     3.4470     0.8020 hn         1 KLJ       0.381800
     23 H3           1.6550    -0.0010     2.1360 ha         1 KLJ       0.106500
     24 H4           4.1190     0.0010     2.1400 ha         1 KLJ       0.119500
     25 H6           1.6550    -0.0050    -2.1350 ha         1 KLJ       0.106500
     26 H7           4.1190    -0.0030    -2.1390 ha         1 KLJ       0.119500
     27 H8          -0.1480     1.9530    -0.8840 h1         1 KLJ       0.066200
     28 H8A         -0.1490     1.9520     0.8850 h1         1 KLJ       0.066200
     29 H9           5.9890     0.8870    -1.8260 h1         1 KLJ      -0.002300
     30 H9A          7.3560     0.0050    -1.1290 h1         1 KLJ      -0.002300
     31 H9B          5.9920    -0.8820    -1.8250 h1         1 KLJ      -0.002300
     32 H11         -1.3400     4.1120    -1.1350 h1         1 KLJ       0.022700
     33 H11A        -2.6470     3.3660    -2.0650 h1         1 KLJ       0.022700
     34 H15         -2.3520     5.9820    -2.7530 hn         1 KLJ       0.153500
     35 H16         -3.5570     7.8600    -2.7050 ho         1 KLJ       0.394000
@<TRIPOS>BOND
     1     1     5 1   
     2     1    16 1   
     3     1    20 1   
     4     1    21 1   
     5     2     4 1   
     6     2    19 1   
     7     2    22 1   
     8     3    12 1   
     9     3    17 1   
    10     4     9 2   
    11     4    13 2   
    12     4    16 1   
    13     5     8 ar  
    14     5    14 ar  
    15     6    11 1   
    16     6    18 1   
    17     6    34 1   
    18     7    18 2   
    19     8    10 ar  
    20     8    23 1   
    21    10    12 ar  
    22    10    24 1   
    23    11    35 1   
    24    12    15 ar  
    25    14    15 ar  
    26    14    25 1   
    27    15    26 1   
    28    16    27 1   
    29    16    28 1   
    30    17    29 1   
    31    17    30 1   
    32    17    31 1   
    33    18    19 1   
    34    19    32 1   
    35    19    33 1   
@<TRIPOS>SUBSTRUCTURE
     1 KLJ         1 TEMP              0 ****  ****    0 ROOT
