@<TRIPOS>MOLECULE
molecule
   35    35     1     0     0
SMALL
bcc


@<TRIPOS>ATOM
      1 C1           0.0000     0.0000     0.0000 c3         1 KLJ      -0.006100
      2 N1          -2.7380     3.0460     0.0010 n7         1 KLJ      -0.901100
      3 O1           5.6330     0.0020     0.0010 os         1 KLJ      -0.327900
      4 S1          -2.3240     1.4420    -0.0000 s6         1 KLJ       1.328900
      5 C2           1.5080     0.0000     0.0000 ca         1 KLJ      -0.123300
      6 N2          -3.0380     6.1090    -2.0340 ns         1 KLJ      -0.471400
      7 O2          -3.9510     5.3650    -0.1540 o          1 KLJ      -0.561100
      8 C3           2.1980     0.0000     1.1980 ca         1 KLJ      -0.084500
      9 O3          -2.8220     0.9510     1.2360 o          1 KLJ      -0.622300
     10 C4           3.5790     0.0010     1.2010 ca         1 KLJ      -0.188000
     11 O4          -3.7760     7.3160    -1.9660 oh         1 KLJ      -0.356100
     12 C5           4.2750     0.0010     0.0010 ca         1 KLJ       0.143100
     13 O5          -2.8220     0.9530    -1.2370 o          1 KLJ      -0.622300
     14 C6           2.1980    -0.0050    -1.1980 ca         1 KLJ      -0.084500
     15 C7           3.5790     0.0010    -1.2000 ca         1 KLJ      -0.188000
     16 C8          -0.5090     1.4420     0.0010 c3         1 KLJ      -0.227600
     17 C9           6.2820     0.0030    -1.2720 c3         1 KLJ       0.128700
     18 C10         -3.1860     5.1730    -1.0750 c          1 KLJ       0.667100
     19 C11         -2.4000     3.8890    -1.1490 c3         1 KLJ       0.169800
     20 H1          -0.3610    -0.5100    -0.8850 hc         1 KLJ       0.062200
     21 H1A         -0.3610    -0.5110     0.8840 hc         1 KLJ       0.062200
     22 HN1         -3.1840     3.4470     0.8020 hn         1 KLJ       0.482800
     23 H3           1.6550    -0.0010     2.1360 ha         1 KLJ       0.134500
     24 H4           4.1190     0.0010     2.1400 ha         1 KLJ       0.141000
     25 H6           1.6550    -0.0050    -2.1350 ha         1 KLJ       0.134500
     26 H7           4.1190    -0.0030    -2.1390 ha         1 KLJ       0.141000
     27 H8          -0.1480     1.9530    -0.8840 h1         1 KLJ       0.097700
     28 H8A         -0.1490     1.9520     0.8850 h1         1 KLJ       0.097700
     29 H9           5.9890     0.8870    -1.8260 h1         1 KLJ       0.042367
     30 H9A          7.3560     0.0050    -1.1290 h1         1 KLJ       0.042367
     31 H9B          5.9920    -0.8820    -1.8250 h1         1 KLJ       0.042367
     32 H11         -1.3400     4.1120    -1.1350 h1         1 KLJ       0.062200
     33 H11A        -2.6470     3.3660    -2.0650 h1         1 KLJ       0.062200
     34 H15         -2.3520     5.9820    -2.7530 hn         1 KLJ       0.319500
     35 H16         -3.5570     7.8600    -2.7050 ho         1 KLJ       0.401000
@<TRIPOS>BOND
     1     1    16 1
     2     1     5 1
     3     1    20 1
     4     1    21 1
     5     2    19 1
     6     2     4 1
     7     2    22 1
     8     4    16 1
     9     5     8 ar
    10     6    11 1
    11     7    18 2
    12     8    10 ar
    13     8    23 1
    14     9     4 2
    15    10    24 1
    16    12     3 1
    17    12    10 ar
    18    13     4 2
    19    14     5 ar
    20    14    15 ar
    21    14    25 1
    22    15    12 ar
    23    15    26 1
    24    16    27 1
    25    16    28 1
    26    17     3 1
    27    17    29 1
    28    17    30 1
    29    17    31 1
    30    18     6 1
    31    19    18 1
    32    19    32 1
    33    19    33 1
    34     6    34 1
    35    11    35 1
@<TRIPOS>SUBSTRUCTURE
     1 KLJ         1 TEMP              0 ****  ****    0 ROOT
