@<TRIPOS>MOLECULE
KLN
   64    68     1     0     0
SMALL
bcc


@<TRIPOS>ATOM
      1 N1           0.0000     0.0000     0.0000 na         1 KLN       0.290100
      2 C1           1.3500     0.0000     0.0000 cc         1 KLN       0.217400
      3 N2           1.7690     0.0000     1.2360 nd         1 KLN      -0.623000
      4 C2           0.7110    -0.0010     2.0600 cd         1 KLN       0.310200
      5 C3          -0.4050    -0.0010     1.3070 cc         1 KLN      -0.426600
      6 C4          -0.8690     0.0050    -1.1800 c3         1 KLN      -0.082700
      7 C5          -1.1720    -1.4350    -1.5970 c3         1 KLN       0.402900
      8 O1          -1.8160    -2.1240    -0.5170 os         1 KLN      -0.387600
      9 C6          -0.9700    -3.2330    -0.1510 c3         1 KLN       0.113100
     10 C7           0.4160    -2.8100    -0.6970 c3         1 KLN       0.146400
     11 O2           0.0550    -2.1140    -1.9140 os         1 KLN      -0.394600
     12 C8          -2.0720    -1.4330    -2.8060 ca         1 KLN      -0.117300
     13 C9          -2.4820    -2.6310    -3.3650 ca         1 KLN       0.019400
     14 C10         -3.3080    -2.6290    -4.4750 ca         1 KLN      -0.101000
     15 C11         -3.7250    -1.4300    -5.0250 ca         1 KLN      -0.016600
     16 C12         -3.3130    -0.2330    -4.4640 ca         1 KLN      -0.099000
     17 C13         -2.4930    -0.2360    -3.3520 ca         1 KLN      -0.075000
     18 Cl1         -4.7610    -1.4270    -6.4170 cl         1 KLN      -0.008400
     19 C14         -0.9260    -3.4000     1.3690 c3         1 KLN       0.184400
     20 O3          -2.2160    -3.7920     1.8430 os         1 KLN      -0.294900
     21 C15         -2.3490    -3.9840     3.1830 ca         1 KLN       0.128100
     22 C16         -3.5740    -4.3650     3.7090 ca         1 KLN      -0.149000
     23 C17         -3.7110    -4.5600     5.0690 ca         1 KLN      -0.103000
     24 C18         -2.6200    -4.3760     5.9100 ca         1 KLN      -0.020400
     25 C19         -1.3940    -3.9940     5.3810 ca         1 KLN      -0.103000
     26 C20         -1.2590    -3.8040     4.0200 ca         1 KLN      -0.149000
     27 N3          -2.7570    -4.5740     7.2890 nh         1 KLN      -0.359000
     28 C21         -1.4880    -4.3260     7.9850 c3         1 KLN       0.118300
     29 C22         -1.6300    -4.7260     9.4580 c3         1 KLN       0.049500
     30 N4          -2.7950    -4.0270    10.0210 n          1 KLN      -0.165800
     31 C23         -4.0750    -4.1170     9.3010 c3         1 KLN       0.049500
     32 C24         -3.8370    -3.7400     7.8350 c3         1 KLN       0.118300
     33 C25         -2.6920    -3.3240    11.1660 c          1 KLN       0.589100
     34 O4          -3.6360    -2.6740    11.5650 o          1 KLN      -0.648100
     35 C26         -1.4060    -3.3460    11.9510 c3         1 KLN      -0.072100
     36 Cl2         -1.9580    -4.1350    -2.6750 cl         1 KLN       0.002600
     37 H1           1.9810     0.0010    -0.8800 h5         1 KLN       0.030100
     38 H3          -1.4270    -0.0010     1.6670 h4         1 KLN       0.163000
     39 H4C1        -0.3710     0.5200    -1.9930 h1         1 KLN       0.058200
     40 H4C2        -1.7960     0.5150    -0.9440 h1         1 KLN       0.058200
     41 H2           0.7480    -0.0020     3.1430 h4         1 KLN       0.004100
     42 H6          -1.3070    -4.1430    -0.6330 h1         1 KLN       0.060700
     43 H7C1         1.0250    -3.6790    -0.9160 h1         1 KLN       0.042700
     44 H7C2         0.9160    -2.1430    -0.0050 h1         1 KLN       0.042700
     45 H141        -0.6430    -2.4610     1.8270 h1         1 KLN       0.019700
     46 H142        -0.2000    -4.1620     1.6270 h1         1 KLN       0.019700
     47 H13         -2.1710     0.7010    -2.9140 ha         1 KLN       0.116000
     48 H10         -3.6290    -3.5660    -4.9130 ha         1 KLN       0.129000
     49 H12         -3.6410     0.7060    -4.8930 ha         1 KLN       0.119000
     50 H20         -0.3020    -3.5060     3.6070 ha         1 KLN       0.119500
     51 H16         -4.4250    -4.5090     3.0530 ha         1 KLN       0.119500
     52 H19         -0.5420    -3.8520     6.0350 ha         1 KLN       0.117500
     53 H17         -4.6680    -4.8580     5.4810 ha         1 KLN       0.117500
     54 H211        -1.2410    -3.2730     7.9200 h1         1 KLN       0.026450
     55 H212        -0.7040    -4.9150     7.5260 h1         1 KLN       0.026450
     56 H241        -4.7440    -3.9090     7.2680 h1         1 KLN       0.026450
     57 H242        -3.5540    -2.6970     7.7730 h1         1 KLN       0.026450
     58 H221        -1.7780    -5.7960     9.5300 h1         1 KLN       0.035450
     59 H222        -0.7370    -4.4380    10.0000 h1         1 KLN       0.035450
     60 H231        -4.7880    -3.4300     9.7410 h1         1 KLN       0.035450
     61 H232        -4.4540    -5.1300     9.3590 h1         1 KLN       0.035450
     62 H261        -0.6390    -2.8150    11.4010 hc         1 KLN       0.024700
     63 H262        -1.5610    -2.8650    12.9100 hc         1 KLN       0.024700
     64 H263        -1.0960    -4.3720    12.1070 hc         1 KLN       0.024700
@<TRIPOS>BOND
     1     1     2 1   
     2     1     5 1   
     3     1     6 1   
     4     2     3 2   
     5     2    37 1   
     6     3     4 1   
     7     4     5 2   
     8     4    41 1   
     9     5    38 1   
    10     6     7 1   
    11     6    39 1   
    12     6    40 1   
    13     7     8 1   
    14     7    11 1   
    15     7    12 1   
    16     8     9 1   
    17     9    10 1   
    18     9    19 1   
    19     9    42 1   
    20    10    11 1   
    21    10    43 1   
    22    10    44 1   
    23    12    13 ar  
    24    12    17 ar  
    25    13    14 ar  
    26    13    36 1   
    27    14    15 ar  
    28    14    48 1   
    29    15    16 ar  
    30    15    18 1   
    31    16    17 ar  
    32    16    49 1   
    33    17    47 1   
    34    19    20 1   
    35    19    45 1   
    36    19    46 1   
    37    20    21 1   
    38    21    22 ar  
    39    21    26 ar  
    40    22    23 ar  
    41    22    51 1   
    42    23    24 ar  
    43    23    53 1   
    44    24    25 ar  
    45    24    27 1   
    46    25    26 ar  
    47    25    52 1   
    48    26    50 1   
    49    27    28 1   
    50    27    32 1   
    51    28    29 1   
    52    28    54 1   
    53    28    55 1   
    54    29    30 1   
    55    29    58 1   
    56    29    59 1   
    57    30    31 1   
    58    30    33 1   
    59    31    32 1   
    60    31    60 1   
    61    31    61 1   
    62    32    56 1   
    63    32    57 1   
    64    33    34 2   
    65    33    35 1   
    66    35    62 1   
    67    35    63 1   
    68    35    64 1   
@<TRIPOS>SUBSTRUCTURE
     1 KLN         1 TEMP              0 ****  ****    0 ROOT
