@<TRIPOS>MOLECULE
molecule
   64    68     1     0     0
SMALL
bcc


@<TRIPOS>ATOM
      1 N1           0.0000     0.0000     0.0000 na         1 KLN      -0.189900
      2 C1           1.3500     0.0000     0.0000 cc         1 KLN       0.389400
      3 N2           1.7690     0.0000     1.2360 nd         1 KLN      -0.699000
      4 C2           0.7110    -0.0010     2.0600 cd         1 KLN       0.295200
      5 C3          -0.4050    -0.0010     1.3070 cc         1 KLN      -0.267600
      6 C4          -0.8690     0.0050    -1.1800 c3         1 KLN       0.023300
      7 C5          -1.1720    -1.4350    -1.5970 c3         1 KLN       0.359900
      8 O1          -1.8160    -2.1240    -0.5170 os         1 KLN      -0.392600
      9 C6          -0.9700    -3.2330    -0.1510 c3         1 KLN       0.105100
     10 C7           0.4160    -2.8100    -0.6970 c3         1 KLN       0.089400
     11 O2           0.0550    -2.1140    -1.9140 os         1 KLN      -0.399600
     12 C8          -2.0720    -1.4330    -2.8060 ca         1 KLN      -0.091300
     13 C9          -2.4820    -2.6310    -3.3650 ca         1 KLN       0.079400
     14 C10         -3.3080    -2.6290    -4.4750 ca         1 KLN      -0.120000
     15 C11         -3.7250    -1.4300    -5.0250 ca         1 KLN       0.047400
     16 C12         -3.3130    -0.2330    -4.4640 ca         1 KLN      -0.123000
     17 C13         -2.4930    -0.2360    -3.3520 ca         1 KLN      -0.101000
     18 Cl1         -4.7610    -1.4270    -6.4170 cl         1 KLN      -0.089400
     19 C14         -0.9260    -3.4000     1.3690 c3         1 KLN       0.136400
     20 O3          -2.2160    -3.7920     1.8430 os         1 KLN      -0.320900
     21 C15         -2.3490    -3.9840     3.1830 ca         1 KLN       0.119100
     22 C16         -3.5740    -4.3650     3.7090 ca         1 KLN      -0.165500
     23 C17         -3.7110    -4.5600     5.0690 ca         1 KLN      -0.128500
     24 C18         -2.6200    -4.3760     5.9100 ca         1 KLN       0.065600
     25 C19         -1.3940    -3.9940     5.3810 ca         1 KLN      -0.128500
     26 C20         -1.2590    -3.8040     4.0200 ca         1 KLN      -0.165500
     27 N3          -2.7570    -4.5740     7.2890 nh         1 KLN      -0.594000
     28 C21         -1.4880    -4.3260     7.9850 c3         1 KLN       0.146300
     29 C22         -1.6300    -4.7260     9.4580 c3         1 KLN       0.105500
     30 N4          -2.7950    -4.0270    10.0210 n          1 KLN      -0.498800
     31 C23         -4.0750    -4.1170     9.3010 c3         1 KLN       0.105500
     32 C24         -3.8370    -3.7400     7.8350 c3         1 KLN       0.146300
     33 C25         -2.6920    -3.3240    11.1660 c          1 KLN       0.662100
     34 O4          -3.6360    -2.6740    11.5650 o          1 KLN      -0.610100
     35 C26         -1.4060    -3.3460    11.9510 c3         1 KLN      -0.170100
     36 Cl2         -1.9580    -4.1350    -2.6750 cl         1 KLN      -0.083400
     37 H1           1.9810     0.0010    -0.8800 h5         1 KLN       0.071100
     38 H3          -1.4270    -0.0010     1.6670 h4         1 KLN       0.184000
     39 H4C1        -0.3710     0.5200    -1.9930 h1         1 KLN       0.081700
     40 H4C2        -1.7960     0.5150    -0.9440 h1         1 KLN       0.081700
     41 H2           0.7480    -0.0020     3.1430 h4         1 KLN       0.042100
     42 H6          -1.3070    -4.1430    -0.6330 h1         1 KLN       0.086700
     43 H7C1         1.0250    -3.6790    -0.9160 h1         1 KLN       0.078700
     44 H7C2         0.9160    -2.1430    -0.0050 h1         1 KLN       0.078700
     45 H141        -0.6430    -2.4610     1.8270 h1         1 KLN       0.051200
     46 H142        -0.2000    -4.1620     1.6270 h1         1 KLN       0.051200
     47 H13         -2.1710     0.7010    -2.9140 ha         1 KLN       0.143000
     48 H10         -3.6290    -3.5660    -4.9130 ha         1 KLN       0.162000
     49 H12         -3.6410     0.7060    -4.8930 ha         1 KLN       0.152000
     50 H20         -0.3020    -3.5060     3.6070 ha         1 KLN       0.141500
     51 H16         -4.4250    -4.5090     3.0530 ha         1 KLN       0.141500
     52 H19         -0.5420    -3.8520     6.0350 ha         1 KLN       0.139000
     53 H17         -4.6680    -4.8580     5.4810 ha         1 KLN       0.139000
     54 H211        -1.2410    -3.2730     7.9200 h1         1 KLN       0.050200
     55 H212        -0.7040    -4.9150     7.5260 h1         1 KLN       0.050200
     56 H241        -4.7440    -3.9090     7.2680 h1         1 KLN       0.050200
     57 H242        -3.5540    -2.6970     7.7730 h1         1 KLN       0.050200
     58 H221        -1.7780    -5.7960     9.5300 h1         1 KLN       0.063450
     59 H222        -0.7370    -4.4380    10.0000 h1         1 KLN       0.063450
     60 H231        -4.7880    -3.4300     9.7410 h1         1 KLN       0.063450
     61 H232        -4.4540    -5.1300     9.3590 h1         1 KLN       0.063450
     62 H261        -0.6390    -2.8150    11.4010 hc         1 KLN       0.060700
     63 H262        -1.5610    -2.8650    12.9100 hc         1 KLN       0.060700
     64 H263        -1.0960    -4.3720    12.1070 hc         1 KLN       0.060700
@<TRIPOS>BOND
     1     1     2 1
     2     2     3 2
     3     3     4 1
     4     1     5 1
     5     4     5 2
     6     1     6 1
     7     6     7 1
     8     7     8 1
     9     8     9 1
    10     9    10 1
    11     7    11 1
    12    10    11 1
    13     7    12 1
    14    12    13 ar
    15    13    14 ar
    16    14    15 ar
    17    15    16 ar
    18    12    17 ar
    19    16    17 ar
    20    15    18 1
    21     9    19 1
    22    19    20 1
    23    20    21 1
    24    21    22 ar
    25    23    22 ar
    26    24    23 ar
    27    25    24 ar
    28    26    25 ar
    29    21    26 ar
    30    24    27 1
    31    27    28 1
    32    28    29 1
    33    29    30 1
    34    30    31 1
    35    27    32 1
    36    31    32 1
    37    30    33 1
    38    33    34 2
    39    33    35 1
    40    13    36 1
    41     2    37 1
    42     5    38 1
    43     6    39 1
    44     6    40 1
    45     4    41 1
    46     9    42 1
    47    10    43 1
    48    10    44 1
    49    19    45 1
    50    19    46 1
    51    17    47 1
    52    14    48 1
    53    16    49 1
    54    26    50 1
    55    22    51 1
    56    25    52 1
    57    23    53 1
    58    28    54 1
    59    28    55 1
    60    32    56 1
    61    32    57 1
    62    29    58 1
    63    29    59 1
    64    31    60 1
    65    31    61 1
    66    35    62 1
    67    35    63 1
    68    35    64 1
@<TRIPOS>SUBSTRUCTURE
     1 KLN         1 TEMP              0 ****  ****    0 ROOT
