@<TRIPOS>MOLECULE
molecule
   26    26     1     0     0
SMALL
bcc


@<TRIPOS>ATOM
      1 CAM          0.0000     0.0000     0.0000 c3         1 KLS       0.123300
      2 NAL          1.4660     0.0000     0.0000 ns         1 KLS      -0.609900
      3 CAK          2.1390     0.0000     1.1670 c          1 KLS       0.772100
      4 OAJ          1.5310     0.0010     2.2200 o          1 KLS      -0.570100
      5 NAN          3.4870    -0.0010     1.1680 ns         1 KLS      -0.502400
      6 CAB          4.1770    -0.0000     2.3640 c2         1 KLS       0.696800
      7 NAA          3.5250     0.0010     3.4920 n2         1 KLS      -0.852100
      8 NAC          5.5530    -0.0010     2.3650 nu         1 KLS      -0.801600
      9 CAD          6.2520    -0.1240     1.1600 ca         1 KLS       0.149600
     10 CAE          7.3910     0.6370     0.9350 ca         1 KLS      -0.177500
     11 CAF          8.0800     0.5140    -0.2550 ca         1 KLS      -0.101000
     12 CAG          7.6370    -0.3690    -1.2240 ca         1 KLS      -0.152000
     13 CAH          6.5020    -1.1300    -1.0030 ca         1 KLS      -0.101000
     14 CAI          5.8130    -1.0140     0.1880 ca         1 KLS      -0.177500
     15 HAM1        -0.3610    -0.0040    -1.0210 h1         1 KLS       0.042033
     16 HAM2        -0.3610     0.8870     0.5070 h1         1 KLS       0.042033
     17 HAM3        -0.3610    -0.8820     0.5140 h1         1 KLS       0.042033
     18 HAL          1.9660     0.0370    -0.8660 hn         1 KLS       0.302500
     19 HAN          3.9870     0.0460     0.3030 hn         1 KLS       0.330500
     20 HAA          4.0250     0.0010     4.3590 hn         1 KLS       0.395400
     21 HAC          6.0530     0.0680     3.2290 hn         1 KLS       0.461800
     22 HAE          7.7390     1.3280     1.6930 ha         1 KLS       0.142000
     23 HAI          4.9250    -1.6100     0.3610 ha         1 KLS       0.142000
     24 HAF          8.9680     1.1080    -0.4300 ha         1 KLS       0.134500
     25 HAG          8.1780    -0.4620    -2.1580 ha         1 KLS       0.133000
     26 HAH          6.1590    -1.8220    -1.7620 ha         1 KLS       0.134500
@<TRIPOS>BOND
     1     1     2 1
     2     2     3 1
     3     3     4 2
     4     3     5 1
     5     5     6 1
     6     6     7 2
     7     6     8 1
     8     8     9 1
     9     9    10 ar
    10     9    14 ar
    11    10    11 ar
    12    11    12 ar
    13    12    13 ar
    14    13    14 ar
    15     1    15 1
    16     1    16 1
    17     1    17 1
    18     2    18 1
    19     5    19 1
    20     7    20 1
    21     8    21 1
    22    10    22 1
    23    14    23 1
    24    11    24 1
    25    12    25 1
    26    13    26 1
@<TRIPOS>SUBSTRUCTURE
     1 KLS         1 TEMP              0 ****  ****    0 ROOT
