@<TRIPOS>MOLECULE
KLS
   26    26     1     0     0
SMALL
bcc


@<TRIPOS>ATOM
      1 CAM          0.0000     0.0000     0.0000 c3         1 KLS       0.100300
      2 NAL          1.4660     0.0000     0.0000 ns         1 KLS      -0.208900
      3 CAK          2.1390     0.0000     1.1670 c          1 KLS       0.580100
      4 OAJ          1.5310     0.0010     2.2200 o          1 KLS      -0.687100
      5 NAN          3.4870    -0.0010     1.1680 ns         1 KLS      -0.127400
      6 CAB          4.1770    -0.0000     2.3640 c2         1 KLS       0.363800
      7 NAA          3.5250     0.0010     3.4920 n2         1 KLS      -0.828100
      8 NAC          5.5530    -0.0010     2.3650 nu         1 KLS      -0.297600
      9 CAD          6.2520    -0.1240     1.1600 ca         1 KLS       0.010600
     10 CAE          7.3910     0.6370     0.9350 ca         1 KLS      -0.158000
     11 CAF          8.0800     0.5140    -0.2550 ca         1 KLS      -0.066000
     12 CAG          7.6370    -0.3690    -1.2240 ca         1 KLS      -0.129000
     13 CAH          6.5020    -1.1300    -1.0030 ca         1 KLS      -0.066000
     14 CAI          5.8130    -1.0140     0.1880 ca         1 KLS      -0.158000
     15 HAM1        -0.3610    -0.8830     0.5140 h1         1 KLS       0.011033
     16 HAM2        -0.3610     0.8860     0.5080 h1         1 KLS       0.011033
     17 HAM3        -0.3610    -0.0030    -1.0210 h1         1 KLS       0.011033
     18 HAL          1.9660     0.0370    -0.8660 hn         1 KLS       0.166500
     19 HAN          3.9870     0.0460     0.3030 hn         1 KLS       0.189500
     20 HAA          2.5240     0.0010     3.4910 hn         1 KLS       0.427400
     21 HAC          6.0530     0.0660     3.2290 hn         1 KLS       0.308800
     22 HAE          7.7390     1.3280     1.6930 ha         1 KLS       0.117000
     23 HAI          4.9250    -1.6100     0.3610 ha         1 KLS       0.117000
     24 HAF          8.9680     1.1080    -0.4300 ha         1 KLS       0.103000
     25 HAG          8.1780    -0.4620    -2.1580 ha         1 KLS       0.106000
     26 HAH          6.1590    -1.8220    -1.7620 ha         1 KLS       0.103000
@<TRIPOS>BOND
     1     1     2 1   
     2     1    15 1   
     3     1    16 1   
     4     1    17 1   
     5     2     3 1   
     6     2    18 1   
     7     3     4 2   
     8     3     5 1   
     9     5     6 1   
    10     5    19 1   
    11     6     7 2   
    12     6     8 1   
    13     7    20 1   
    14     8     9 1   
    15     8    21 1   
    16     9    10 ar  
    17     9    14 ar  
    18    10    11 ar  
    19    10    22 1   
    20    11    12 ar  
    21    11    24 1   
    22    12    13 ar  
    23    12    25 1   
    24    13    14 ar  
    25    13    26 1   
    26    14    23 1   
@<TRIPOS>SUBSTRUCTURE
     1 KLS         1 TEMP              0 ****  ****    0 ROOT
