@<TRIPOS>MOLECULE
KLT
   34    36     1     0     0
SMALL
bcc


@<TRIPOS>ATOM
      1 O1           0.0000     0.0000     0.0000 o          1 KLT      -0.488800
      2 S1           1.4210     0.0000     0.0000 sy         1 KLT       0.940200
      3 O2           2.1970     0.0000     1.1900 o          1 KLT      -0.488800
      4 N1           1.8890    -1.3330    -0.8640 nz         1 KLT      -0.146500
      5 C1           1.9180     1.4180    -0.9190 ca         1 KLT      -0.222500
      6 C2           0.9650     2.2750    -1.4380 ca         1 KLT       0.045000
      7 C3           3.2630     1.6790    -1.1160 ca         1 KLT       0.022400
      8 Cl1          4.4600     0.6080    -0.4590 cl         1 KLT       0.023600
      9 C4           3.6520     2.7930    -1.8380 ca         1 KLT      -0.096000
     10 C5           2.6980     3.6460    -2.3610 ca         1 KLT       0.045000
     11 C6           1.3550     3.3880    -2.1590 ca         1 KLT      -0.132300
     12 C7           0.3160     4.3210    -2.7250 c3         1 KLT       0.352800
     13 O8           0.7470     4.8270    -3.9900 oh         1 KLT      -0.580800
     14 C9           0.0650     5.4600    -1.7680 ca         1 KLT      -0.128300
     15 C10          0.8690     6.4500    -1.2510 ca         1 KLT      -0.056000
     16 C11          0.3400     7.3800    -0.3710 ca         1 KLT      -0.065000
     17 C12         -0.9930     7.3160    -0.0090 ca         1 KLT      -0.090000
     18 C13         -1.8080     6.3260    -0.5210 ca         1 KLT      -0.006000
     19 C14         -1.2830     5.3860    -1.4100 ca         1 KLT      -0.169600
     20 C15         -1.8860     4.2370    -2.1110 c          1 KLT       0.654100
     21 O3          -3.0490     3.8970    -2.0160 o          1 KLT      -0.621500
     22 N2          -0.9640     3.6200    -2.8730 ns         1 KLT      -0.270900
     23 HN1          1.7690    -1.1560    -1.8420 hn         1 KLT       0.317800
     24 HN1A         1.3290    -2.1180    -0.5960 hn         1 KLT       0.317800
     25 H2          -0.0870     2.0730    -1.2800 ha         1 KLT       0.149000
     26 H4           4.7040     2.9960    -1.9950 ha         1 KLT       0.142000
     27 H5           3.0030     4.5180    -2.9270 ha         1 KLT       0.143000
     28 HO8          0.1410     4.5580    -4.6600 ho         1 KLT       0.416000
     29 H10          1.9130     6.5030    -1.5330 ha         1 KLT       0.106000
     30 H11          0.9730     8.1600     0.0350 ha         1 KLT       0.115000
     31 H12         -1.4010     8.0460     0.6800 ha         1 KLT       0.119000
     32 H13         -2.8520     6.2790    -0.2350 ha         1 KLT       0.124000
     33 HN2         -1.1260     2.8160    -3.4470 hn         1 KLT       0.209500
     34 H131         2.8550    -1.5250    -0.6830 hn         1 KLT       0.317800
@<TRIPOS>BOND
     1     1     2 2   
     2     2     3 2   
     3     2     4 1   
     4     2     5 1   
     5     4    23 1   
     6     4    24 1   
     7     4    34 1   
     8     5     6 ar  
     9     5     7 ar  
    10     6    11 ar  
    11     6    25 1   
    12     7     8 1   
    13     7     9 ar  
    14     9    10 ar  
    15     9    26 1   
    16    10    11 ar  
    17    10    27 1   
    18    11    12 1   
    19    12    13 1   
    20    12    14 1   
    21    12    22 1   
    22    13    28 1   
    23    14    15 ar  
    24    14    19 ar  
    25    15    16 ar  
    26    15    29 1   
    27    16    17 ar  
    28    16    30 1   
    29    17    18 ar  
    30    17    31 1   
    31    18    19 ar  
    32    18    32 1   
    33    19    20 1   
    34    20    21 2   
    35    20    22 1   
    36    22    33 1   
@<TRIPOS>SUBSTRUCTURE
     1 KLT         1 TEMP              0 ****  ****    0 ROOT
