@<TRIPOS>MOLECULE
molecule
   24    25     1     0     0
SMALL
bcc


@<TRIPOS>ATOM
      1 C            0.0000     0.0000     0.0000 c3         1 KLV      -0.058900
      2 O            4.2270    -0.0000     2.1930 o          1 KLV      -0.662500
      3 P            4.7680     1.4490    -5.3290 p5         1 KLV       1.092900
      4 C1           1.5070     0.0000     0.0000 cc         1 KLV       0.066600
      5 O1           4.2980    -0.0000    -0.0150 os         1 KLV      -0.302200
      6 C2           2.2040     0.0000     1.1660 cd         1 KLV      -0.363200
      7 C3           3.6140     0.0000     1.1400 c          1 KLV       0.755800
      8 O3           3.4020     2.1990    -5.7350 o          1 KLV      -0.865500
      9 C4           3.6660    -0.0050    -1.2080 ca         1 KLV       0.168100
     10 O4           5.4670     2.2290    -4.2830 o          1 KLV      -0.865500
     11 C5           2.2590    -0.0050    -1.2560 ca         1 KLV      -0.239800
     12 O5           5.7150     1.3180    -6.6250 o          1 KLV      -0.865500
     13 C6           1.6010    -0.0110    -2.4900 ca         1 KLV      -0.081000
     14 C7           2.3260    -0.0150    -3.6460 ca         1 KLV      -0.170000
     15 C8           3.7190    -0.0150    -3.6060 ca         1 KLV       0.303100
     16 C9           4.3870    -0.0110    -2.3920 ca         1 KLV      -0.172000
     17 H           -0.3610    -0.9050    -0.4740 hc         1 KLV       0.040367
     18 HA          -0.3610     0.8630    -0.5470 hc         1 KLV       0.040367
     19 HB          -0.3610     0.0420     1.0200 hc         1 KLV       0.040367
     20 H2           1.6800    -0.0770     2.1110 ha         1 KLV       0.134000
     21 H6           0.5210    -0.0950    -2.5280 ha         1 KLV       0.104000
     22 H7           1.8160    -0.0240    -4.6010 ha         1 KLV       0.160000
     23 H9           5.4350    -0.2740    -2.3150 ha         1 KLV       0.156000
     24 O2           4.4260    -0.0200    -4.7640 os         1 KLV      -0.414500
@<TRIPOS>BOND
     1     1     4 1
     2     1    17 1
     3     1    18 1
     4     1    19 1
     5     2     7 2
     6    10     3 1
     7    24     3 1
     8     3    12 1
     9     3     8 1
    10     6     4 2
    11     4    11 1
    12     7     5 1
    13     5     9 1
    14     6     7 1
    15     6    20 1
    16    15    24 1
    17    11     9 ar
    18     9    16 ar
    19    11    13 ar
    20    13    14 ar
    21    13    21 1
    22    14    15 ar
    23    14    22 1
    24    16    15 ar
    25    16    23 1
@<TRIPOS>SUBSTRUCTURE
     1 KLV         1 TEMP              0 ****  ****    0 ROOT
