@<TRIPOS>MOLECULE
KLV
   24    23     1     0     0
SMALL
bcc


@<TRIPOS>ATOM
      1 C           0.1000    0.0900   -0.1600 c3        1 KLV     -0.182000
      2 O           3.6710   -0.8950    3.0010 o         1 KLV     -0.436000
      3 P           4.2760    1.4180   -6.9270 p3        1 KLV      2.439000
      4 C1          1.5360   -0.1030    0.1820 c2        1 KLV      0.111000
      5 O1          4.2180   -0.5240    0.9450 os        1 KLV     -0.217000
      6 C2          1.8530   -0.3390    1.5070 c2        1 KLV     -0.457000
      7 C3          3.2000   -0.5890    1.8890 c2        1 KLV      0.371000
      8 O3          2.8720    1.0190   -6.6910 o         1 KLV     -1.150000
      9 C4          3.9140   -0.1250   -0.3670 c2        1 KLV     -0.085000
     10 O4          4.6340    2.8520   -6.9290 o         1 KLV     -1.150000
     11 C5          2.5340   -0.0400   -0.8090 c2        1 KLV     -0.319000
     12 O5          5.2260    0.4370   -7.4910 o         1 KLV     -1.150000
     13 C6          2.1590    0.0820   -2.1770 c2        1 KLV      0.024000
     14 C7          2.8320    0.3650   -3.3150 c2        1 KLV     -0.366000
     15 C8          4.2260    0.6850   -3.4760 c2        1 KLV      0.239000
     16 C9          5.0240    0.1420   -1.0940 c1        1 KLV     -0.021000
     17 H          -0.0400    1.0310   -0.7470 hc        1 KLV      0.070667
     18 HA         -0.2700   -0.7700   -0.7710 hc        1 KLV      0.070667
     19 HB         -0.5280    0.1570    0.7620 hc        1 KLV      0.070667
     20 H2          1.0960   -0.3570    2.2950 ha        1 KLV      0.120000
     21 H6          1.0720   -0.0920   -2.3480 ha        1 KLV      0.086000
     22 H7          2.2680    0.3830   -4.2730 ha        1 KLV      0.177000
     23 H9          4.9040    0.6460   -2.5430 h4        1 KLV      0.130000
     24 O2          4.7480    1.0050   -4.5580 o         1 KLV     -0.377000
@<TRIPOS>BOND
     1    1    4 1   
     2    1   17 1   
     3    1   18 1   
     4    1   19 1   
     5    2    7 1   
     6    3    8 1   
     7    3   10 1   
     8    3   12 1   
     9    4    6 1   
    10    4   11 1   
    11    5    7 1   
    12    5    9 1   
    13    6    7 1   
    14    6   20 1   
    15    9   11 1   
    16    9   16 1   
    17   11   13 1   
    18   13   14 1   
    19   13   21 1   
    20   14   15 1   
    21   14   22 1   
    22   15   23 1   
    23   15   24 1   
@<TRIPOS>SUBSTRUCTURE
     1 KLV         1 TEMP              0 ****  ****    0 ROOT
