@<TRIPOS>MOLECULE
KLW
   19    19     1     0     0
SMALL
bcc


@<TRIPOS>ATOM
      1 N            0.0000     0.0000     0.0000 nz         1 KLW       0.199600
      2 C1           2.5370    -0.9820    -3.4270 ca         1 KLW      -0.111000
      3 O1           1.9550     0.0000     1.0520 o          1 KLW      -0.355100
      4 C2           3.4760     0.0010    -3.6880 ca         1 KLW      -0.073000
      5 O2           4.3090     2.9380    -0.7510 o          1 KLW      -0.853800
      6 C3           3.7300     0.9900    -2.7580 ca         1 KLW      -0.051000
      7 O3           2.6310     2.1290     0.4560 o          1 KLW      -0.853800
      8 C4           3.0410     1.0020    -1.5470 ca         1 KLW      -0.020600
      9 C5           2.0870     0.0020    -1.2820 ca         1 KLW      -0.216600
     10 C6           1.8400    -0.9840    -2.2340 ca         1 KLW      -0.112000
     11 C7           1.3470     0.0000     0.0000 c          1 KLW       0.349700
     12 HN          -0.3340    -0.9380     0.1020 hn         1 KLW       0.232133
     13 HNA         -0.3340     0.5570     0.7620 hn         1 KLW       0.232133
     14 H1           2.3440    -1.7510    -4.1650 ha         1 KLW       0.105000
     15 H2           4.0150    -0.0050    -4.6280 ha         1 KLW       0.106000
     16 H3           4.4660     1.7560    -2.9690 ha         1 KLW       0.151000
     17 H6           1.1070    -1.7570    -2.0360 ha         1 KLW       0.077000
     18 HN3         -0.3340     0.3490    -0.8770 hn         1 KLW       0.232133
     19 C8           3.3110     2.0570    -0.5480 c          1 KLW       0.962200
@<TRIPOS>BOND
     1     1    11 1   
     2     1    12 1   
     3     1    13 1   
     4     1    18 1   
     5     2     4 ar  
     6     2    10 ar  
     7     2    14 1   
     8     3    11 2   
     9     4     6 ar  
    10     4    15 1   
    11     5    19 1   
    12     6     8 ar  
    13     6    16 1   
    14     7    19 1   
    15     8     9 ar  
    16     8    19 1   
    17     9    10 ar  
    18     9    11 1   
    19    10    17 1   
@<TRIPOS>SUBSTRUCTURE
     1 KLW         1 TEMP              0 ****  ****    0 ROOT
