@<TRIPOS>MOLECULE
molecule
   19    19     1     0     0
SMALL
bcc


@<TRIPOS>ATOM
      1 N            0.0000     0.0000     0.0000 nz         1 KLW      -0.673400
      2 C1           2.5370    -0.9820    -3.4270 ca         1 KLW      -0.138000
      3 O1           1.9550     0.0000     1.0520 o          1 KLW      -0.357100
      4 C2           3.4760     0.0010    -3.6880 ca         1 KLW      -0.102000
      5 O2           4.3090     2.9380    -0.7510 o          1 KLW      -0.802800
      6 C3           3.7300     0.9900    -2.7580 ca         1 KLW      -0.084000
      7 O3           2.6310     2.1290     0.4560 o          1 KLW      -0.802800
      8 C4           3.0410     1.0020    -1.5470 ca         1 KLW      -0.027600
      9 C5           2.0870     0.0020    -1.2820 ca         1 KLW      -0.199600
     10 C6           1.8400    -0.9840    -2.2340 ca         1 KLW      -0.137000
     11 C7           1.3470     0.0000     0.0000 c          1 KLW       0.509700
     12 HN          -0.3340    -0.9380     0.1020 hn         1 KLW       0.461800
     13 HNA         -0.3340     0.5570     0.7620 hn         1 KLW       0.461800
     14 H1           2.3440    -1.7510    -4.1650 ha         1 KLW       0.133000
     15 H2           4.0150    -0.0050    -4.6280 ha         1 KLW       0.139000
     16 H3           4.4660     1.7560    -2.9690 ha         1 KLW       0.185000
     17 H6           1.1070    -1.7570    -2.0360 ha         1 KLW       0.101000
     18 HN3         -0.3340     0.3490    -0.8770 hn         1 KLW       0.461800
     19 C8           3.3110     2.0570    -0.5480 c          1 KLW       0.870200
@<TRIPOS>BOND
     1     1    11 1
     2     1    12 1
     3     1    13 1
     4    10     2 ar
     5     2     4 ar
     6     2    14 1
     7    11     3 2
     8     4     6 ar
     9     4    15 1
    10    19     5 1
    11     8     6 ar
    12     6    16 1
    13     7    19 1
    14     9     8 ar
    15     8    19 1
    16    11     9 1
    17    10     9 ar
    18    10    17 1
    19    18     1 1
@<TRIPOS>SUBSTRUCTURE
     1 KLW         1 TEMP              0 ****  ****    0 ROOT
