@<TRIPOS>MOLECULE
molecule
   31    33     1     0     0
SMALL
bcc


@<TRIPOS>ATOM
      1 C1           0.0000     0.0000     0.0000 ca         1 KM0      -0.100000
      2 C2           1.3830     0.0000     0.0000 ca         1 KM0      -0.132000
      3 C3           2.0750     0.0000     1.1970 ca         1 KM0      -0.116000
      4 C4           1.3840     0.0010     2.3940 ca         1 KM0      -0.132000
      5 C5           0.0010     0.0020     2.3950 ca         1 KM0      -0.100000
      6 C6          -0.6900     0.0000     1.1980 ca         1 KM0      -0.095300
      7 C7          -2.1970     0.0010     1.1980 c3         1 KM0       0.181700
      8 O8          -2.6740    -1.3460     1.1980 os         1 KM0      -0.290900
      9 C9          -4.0210    -1.5240     1.1990 ca         1 KM0       0.118800
     10 C10         -4.8560    -0.4420     1.1990 ca         1 KM0      -0.238000
     11 C11         -6.2390    -0.6030     1.2000 ca         1 KM0      -0.072000
     12 C12         -6.7990    -1.8460     1.2000 ca         1 KM0      -0.002600
     13 C13         -5.9720    -2.9820     1.2000 ca         1 KM0      -0.118300
     14 C14         -4.5650    -2.8240     1.1940 ca         1 KM0       0.405600
     15 N15         -3.7740    -3.9020     1.1880 nb         1 KM0      -0.648000
     16 C16         -4.2750    -5.1140     1.1810 ca         1 KM0       0.419200
     17 C17         -5.6490    -5.3390     1.1810 ca         1 KM0      -0.242300
     18 C18         -6.5140    -4.2810     1.2000 ca         1 KM0      -0.085000
     19 Cl19        -8.5260    -2.0230     1.2010 cl         1 KM0      -0.108400
     20 H1          -0.5420    -0.0010    -0.9380 ha         1 KM0       0.134000
     21 H2           1.9240    -0.0010    -0.9380 ha         1 KM0       0.132000
     22 H3           3.1580    -0.0010     1.1970 ha         1 KM0       0.131000
     23 H4           1.9250     0.0020     3.3320 ha         1 KM0       0.132000
     24 H5          -0.5400     0.0030     3.3330 ha         1 KM0       0.134000
     25 H7          -2.5580     0.5120     2.0830 h1         1 KM0       0.041700
     26 H7A         -2.5580     0.5120     0.3140 h1         1 KM0       0.041700
     27 H10         -4.4350     0.5560     1.1990 ha         1 KM0       0.144000
     28 H11         -6.8780     0.2710     1.2000 ha         1 KM0       0.145000
     29 H16         -3.6020    -5.9620     1.1670 h4         1 KM0       0.026100
     30 H17         -6.0320    -6.3520     1.1760 ha         1 KM0       0.140000
     31 H18         -7.5860    -4.4380     1.2000 ha         1 KM0       0.155000
@<TRIPOS>BOND
     1     1     2 ar
     2     1     6 ar
     3     2     3 ar
     4     3     4 ar
     5     4     5 ar
     6     5     6 ar
     7     6     7 1
     8     7     8 1
     9     8     9 1
    10     9    10 ar
    11     9    14 ar
    12    10    11 ar
    13    11    12 ar
    14    12    13 ar
    15    12    19 1
    16    13    14 ar
    17    13    18 ar
    18    14    15 ar
    19    15    16 ar
    20    16    17 ar
    21    17    18 ar
    22     1    20 1
    23     2    21 1
    24     3    22 1
    25     4    23 1
    26     5    24 1
    27     7    25 1
    28     7    26 1
    29    10    27 1
    30    11    28 1
    31    16    29 1
    32    17    30 1
    33    18    31 1
@<TRIPOS>SUBSTRUCTURE
     1 KM0         1 TEMP              0 ****  ****    0 ROOT
