@<TRIPOS>MOLECULE
KM0
   31    33     1     0     0
SMALL
bcc


@<TRIPOS>ATOM
      1 C1         -0.0140   -0.0430   -0.0110 ca        1 KM0     -0.101000
      2 C2          1.3790   -0.0950   -0.0110 ca        1 KM0     -0.135000
      3 C3          2.0780   -0.1160    1.1960 ca        1 KM0     -0.117000
      4 C4          1.3820   -0.0890    2.4050 ca        1 KM0     -0.135000
      5 C5         -0.0120   -0.0370    2.4080 ca        1 KM0     -0.101000
      6 C6         -0.7140   -0.0060    1.1990 ca        1 KM0     -0.096300
      7 C7         -2.2040    0.0840    1.2000 c3        1 KM0      0.170700
      8 O8         -2.7000   -1.2670    1.1940 os        1 KM0     -0.288900
      9 C9         -4.0680   -1.4060    1.1950 ca        1 KM0      0.104800
     10 C10        -4.9530   -0.3440    1.2000 ca        1 KM0     -0.226000
     11 C11        -6.3430   -0.5670    1.2010 ca        1 KM0     -0.079000
     12 C12        -6.8440   -1.8480    1.1970 ca        1 KM0     -0.007600
     13 C13        -5.9730   -2.9730    1.1920 ca        1 KM0     -0.113300
     14 C14        -4.5560   -2.7710    1.1910 ca        1 KM0      0.383600
     15 N15        -3.6710   -3.8310    1.1870 nb        1 KM0     -0.624000
     16 C16        -4.1630   -5.0560    1.1830 ca        1 KM0      0.400200
     17 C17        -5.5600   -5.3580    1.1840 ca        1 KM0     -0.235300
     18 C18        -6.4520   -4.3160    1.1880 ca        1 KM0     -0.088000
     19 CL19       -8.5330   -2.0720    1.1990 cl        1 KM0     -0.095400
     20 H1         -0.5660   -0.0370   -0.9630 ha        1 KM0      0.135500
     21 H2          1.9260   -0.1230   -0.9650 ha        1 KM0      0.134000
     22 H3          3.1770   -0.1580    1.1950 ha        1 KM0      0.132000
     23 H4          1.9310   -0.1130    3.3570 ha        1 KM0      0.134000
     24 H5         -0.5610   -0.0260    3.3610 ha        1 KM0      0.135500
     25 H7         -2.5750    0.6170    0.2840 h1        1 KM0      0.046700
     26 H7A        -2.5740    0.6080    2.1230 h1        1 KM0      0.046700
     27 H10        -4.5980    0.6970    1.2040 ha        1 KM0      0.145000
     28 H11        -7.0190    0.3040    1.2050 ha        1 KM0      0.149000
     29 H16        -3.4220   -5.8770    1.1790 h4        1 KM0      0.026100
     30 H17        -5.8900   -6.4050    1.1810 ha        1 KM0      0.147000
     31 H18        -7.5370   -4.4990    1.1890 ha        1 KM0      0.152000
@<TRIPOS>BOND
     1    1    2 ar  
     2    1    6 ar  
     3    1   20 1   
     4    2    3 ar  
     5    2   21 1   
     6    3    4 ar  
     7    3   22 1   
     8    4    5 ar  
     9    4   23 1   
    10    5    6 ar  
    11    5   24 1   
    12    6    7 1   
    13    7    8 1   
    14    7   25 1   
    15    7   26 1   
    16    8    9 1   
    17    9   10 ar  
    18    9   14 ar  
    19   10   11 ar  
    20   10   27 1   
    21   11   12 ar  
    22   11   28 1   
    23   12   13 ar  
    24   12   19 1   
    25   13   14 ar  
    26   13   18 ar  
    27   14   15 ar  
    28   15   16 ar  
    29   16   17 ar  
    30   16   29 1   
    31   17   18 ar  
    32   17   30 1   
    33   18   31 1   
@<TRIPOS>SUBSTRUCTURE
     1 KM0         1 TEMP              0 ****  ****    0 ROOT
