@<TRIPOS>MOLECULE
KM1
   31    33     1     0     0
SMALL
bcc


@<TRIPOS>ATOM
      1 C1         -0.0230   -1.2290    0.9930 ca        1 KM1     -0.098000
      2 C2          1.3660   -1.2190    0.8620 ca        1 KM1     -0.123000
      3 C3          2.1080   -0.1090    1.2610 ca        1 KM1     -0.121000
      4 C4          1.4440    1.0000    1.7970 ca        1 KM1      0.016400
      5 C5          0.0550    1.0030    1.9340 ca        1 KM1     -0.125000
      6 C6         -0.6800   -0.1190    1.5290 ca        1 KM1     -0.086300
      7 C7         -2.1640   -0.0700    1.6880 c3        1 KM1      0.169700
      8 O8         -2.6960   -1.3420    1.2870 os        1 KM1     -0.296900
      9 C9         -4.0640   -1.4700    1.3500 ca        1 KM1      0.104800
     10 C10        -4.9150   -0.4750    1.7930 ca        1 KM1     -0.220000
     11 C11        -6.3070   -0.6870    1.8320 ca        1 KM1     -0.080000
     12 C12        -6.8420   -1.8900    1.4290 ca        1 KM1     -0.004600
     13 C13        -6.0040   -2.9420    0.9660 ca        1 KM1     -0.113300
     14 C14        -4.5870   -2.7500    0.9160 ca        1 KM1      0.385600
     15 N15        -3.7340   -3.7420    0.4730 nb        1 KM1     -0.631000
     16 C16        -4.2580   -4.8920    0.0890 ca        1 KM1      0.403200
     17 C17        -5.6580   -5.1780    0.1030 ca        1 KM1     -0.235300
     18 C18        -6.5180   -4.2030    0.5400 ca        1 KM1     -0.086000
     19 CL19       -8.5300   -2.1030    1.4930 cl        1 KM1     -0.092400
     20 CL20        2.3380    2.3610    2.2880 cl        1 KM1     -0.096400
     21 H1         -0.6050   -2.1110    0.6770 ha        1 KM1      0.167000
     22 H2          1.8810   -2.0960    0.4400 ha        1 KM1      0.140000
     23 H3          3.2030   -0.1040    1.1560 ha        1 KM1      0.147000
     24 H5         -0.4610    1.8770    2.3570 ha        1 KM1      0.144000
     25 H7         -2.4350    0.1220    2.7620 h1        1 KM1      0.053700
     26 H7A        -2.5980    0.7360    1.0360 h1        1 KM1      0.053700
     27 H10        -4.5330    0.5010    2.1250 ha        1 KM1      0.146000
     28 H11        -6.9560    0.1280    2.1900 ha        1 KM1      0.151000
     29 H16        -3.5430   -5.6600   -0.2590 h4        1 KM1      0.026100
     30 H17        -6.0150   -6.1600   -0.2330 ha        1 KM1      0.148000
     31 H18        -7.6050   -4.3770    0.5680 ha        1 KM1      0.153000
@<TRIPOS>BOND
     1    1    2 ar  
     2    1    6 ar  
     3    1   21 1   
     4    2    3 ar  
     5    2   22 1   
     6    3    4 ar  
     7    3   23 1   
     8    4    5 ar  
     9    4   20 1   
    10    5    6 ar  
    11    5   24 1   
    12    6    7 1   
    13    7    8 1   
    14    7   25 1   
    15    7   26 1   
    16    8    9 1   
    17    9   10 ar  
    18    9   14 ar  
    19   10   11 ar  
    20   10   27 1   
    21   11   12 ar  
    22   11   28 1   
    23   12   13 ar  
    24   12   19 1   
    25   13   14 ar  
    26   13   18 ar  
    27   14   15 ar  
    28   15   16 ar  
    29   16   17 ar  
    30   16   29 1   
    31   17   18 ar  
    32   17   30 1   
    33   18   31 1   
@<TRIPOS>SUBSTRUCTURE
     1 KM1         1 TEMP              0 ****  ****    0 ROOT
