@<TRIPOS>MOLECULE
molecule
   31    33     1     0     0
SMALL
bcc


@<TRIPOS>ATOM
      1 C1           0.0000     0.0000     0.0000 ca         1 KM1      -0.100000
      2 C2           1.3830     0.0000     0.0000 ca         1 KM1      -0.123000
      3 C3           2.0740     0.0000     1.1970 ca         1 KM1      -0.110000
      4 C4           1.3810    -0.0010     2.3960 ca         1 KM1       0.024400
      5 C5          -0.0030    -0.0010     2.3930 ca         1 KM1      -0.095000
      6 C6          -0.6930    -0.0000     1.1960 ca         1 KM1      -0.086300
      7 C7          -2.1990    -0.0000     1.1950 c3         1 KM1       0.182700
      8 O8          -2.6760    -1.3480     1.1940 os         1 KM1      -0.290900
      9 C9          -4.0220    -1.5260     1.1920 ca         1 KM1       0.117800
     10 C10         -4.8580    -0.4460     1.1920 ca         1 KM1      -0.237000
     11 C11         -6.2400    -0.6070     1.1900 ca         1 KM1      -0.073000
     12 C12         -6.8000    -1.8500     1.1890 ca         1 KM1      -0.001600
     13 C13         -5.9730    -2.9860     1.1900 ca         1 KM1      -0.119300
     14 C14         -4.5660    -2.8280     1.1850 ca         1 KM1       0.405600
     15 N15         -3.7740    -3.9050     1.1790 nb         1 KM1      -0.648000
     16 C16         -4.2740    -5.1170     1.1720 ca         1 KM1       0.420200
     17 C17         -5.6490    -5.3430     1.1700 ca         1 KM1      -0.242300
     18 C18         -6.5130    -4.2860     1.1880 ca         1 KM1      -0.085000
     19 Cl19        -8.5260    -2.0290     1.1880 cl         1 KM1      -0.106400
     20 Cl20         2.2480    -0.0020     3.8990 cl         1 KM1      -0.105400
     21 H1          -0.5410     0.0000    -0.9390 ha         1 KM1       0.138000
     22 H2           1.9240     0.0010    -0.9380 ha         1 KM1       0.140000
     23 H3           3.1570    -0.0000     1.1980 ha         1 KM1       0.145000
     24 H5          -0.5450    -0.0010     3.3310 ha         1 KM1       0.148000
     25 H7          -2.5600     0.5100     2.0800 h1         1 KM1       0.044700
     26 H7A         -2.5590     0.5110     0.3110 h1         1 KM1       0.044700
     27 H10         -4.4380     0.5530     1.1930 ha         1 KM1       0.143000
     28 H11         -6.8800     0.2670     1.1900 ha         1 KM1       0.145000
     29 H16         -3.6000    -5.9650     1.1570 h4         1 KM1       0.027100
     30 H17         -6.0320    -6.3560     1.1640 ha         1 KM1       0.141000
     31 H18         -7.5840    -4.4440     1.1870 ha         1 KM1       0.155000
@<TRIPOS>BOND
     1     1     2 ar
     2     1     6 ar
     3     2     3 ar
     4     3     4 ar
     5     4     5 ar
     6     4    20 1
     7     5     6 ar
     8     6     7 1
     9     7     8 1
    10     8     9 1
    11     9    10 ar
    12     9    14 ar
    13    10    11 ar
    14    11    12 ar
    15    12    13 ar
    16    12    19 1
    17    13    14 ar
    18    13    18 ar
    19    14    15 ar
    20    15    16 ar
    21    16    17 ar
    22    17    18 ar
    23     1    21 1
    24     2    22 1
    25     3    23 1
    26     5    24 1
    27     7    25 1
    28     7    26 1
    29    10    27 1
    30    11    28 1
    31    16    29 1
    32    17    30 1
    33    18    31 1
@<TRIPOS>SUBSTRUCTURE
     1 KM1         1 TEMP              0 ****  ****    0 ROOT
