@<TRIPOS>MOLECULE
KMB
   39    41     1     0     0
SMALL
bcc


@<TRIPOS>ATOM
      1 C4         -1.1150   -0.0890    0.0350 c3        1 KMB      0.192100
      2 N4          0.0920    0.7120   -0.3790 n4        1 KMB     -0.849600
      3 C6         -1.2050   -0.1580    1.5120 ca        1 KMB     -0.268300
      4 C1         -1.7230    0.9430    2.2270 ca        1 KMB     -0.068000
      5 C2         -1.8300    0.9350    3.6050 ca        1 KMB     -0.072300
      6 C3         -1.4470   -0.2440    4.3380 ca        1 KMB      0.304400
      7 N3         -1.5870   -0.2870    5.7010 nc        1 KMB     -0.715100
      8 C8         -1.2170   -1.4260    6.3580 cd        1 KMB      0.759800
      9 N2         -1.3630   -1.4680    7.7280 nh        1 KMB     -0.920800
     10 N1         -0.6920   -2.5570    5.7040 n         1 KMB     -0.508400
     11 C7         -0.5230   -2.5630    4.3050 c         1 KMB      0.725100
     12 O1         -0.0430   -3.5750    3.7710 o         1 KMB     -0.596500
     13 C41        -0.9340   -1.3460    3.5880 ca        1 KMB     -0.253600
     14 C5         -0.8160   -1.3020    2.1980 ca        1 KMB      0.017000
     15 C9         -2.3530    2.1350    4.3000 c3        1 KMB      0.027000
     16 S1         -1.6570    3.5520    3.4760 ss        1 KMB     -0.256000
     17 C10        -2.2080    4.9100    4.3420 ca        1 KMB      0.003900
     18 C11        -3.1340    4.8800    5.3860 ca        1 KMB     -0.127500
     19 C12        -3.5220    6.0650    6.0130 ca        1 KMB     -0.109500
     20 C13        -2.9890    7.2840    5.6000 ca        1 KMB     -0.122000
     21 C14        -2.0610    7.3170    4.5560 ca        1 KMB     -0.109500
     22 C15        -1.6690    6.1380    3.9310 ca        1 KMB     -0.127500
     23 H41        -1.0130   -1.1150   -0.4230 hx        1 KMB      0.109200
     24 H42        -2.0180    0.4260   -0.4050 hx        1 KMB      0.109200
     25 HN41        0.1350    0.7990   -1.3970 hn        1 KMB      0.455467
     26 HN42        0.0420    1.6470    0.0420 hn        1 KMB      0.455467
     27 H1         -2.0580    1.8390    1.6710 ha        1 KMB      0.152000
     28 HN21       -1.7370   -0.6790    8.2020 hn        1 KMB      0.467300
     29 HN22       -1.1230   -2.2760    8.2480 hn        1 KMB      0.467300
     30 HN1        -0.4270   -3.3770    6.2090 hn        1 KMB      0.349500
     31 H5         -0.4220   -2.1890    1.6710 ha        1 KMB      0.161000
     32 H91        -3.4710    2.1570    4.2360 h1        1 KMB      0.098200
     33 H92        -2.0780    2.1540    5.3840 h1        1 KMB      0.098200
     34 H11        -3.5670    3.9270    5.7240 ha        1 KMB      0.133000
     35 H12        -4.2530    6.0320    6.8350 ha        1 KMB      0.141500
     36 H13        -3.2960    8.2180    6.0940 ha        1 KMB      0.144000
     37 H14        -1.6360    8.2780    4.2280 ha        1 KMB      0.141500
     38 H15        -0.9330    6.1660    3.1140 ha        1 KMB      0.133000
     39 H43         0.9450    0.2550   -0.0410 hn        1 KMB      0.455467
@<TRIPOS>BOND
     1    1    2 1   
     2    1    3 1   
     3    1   23 1   
     4    1   24 1   
     5    2   25 1   
     6    2   26 1   
     7    2   39 1   
     8    3    4 ar  
     9    3   14 ar  
    10    4    5 ar  
    11    4   27 1   
    12    5    6 ar  
    13    5   15 1   
    14    6    7 1   
    15    6   13 ar  
    16    7    8 2   
    17    8    9 1   
    18    8   10 1   
    19    9   28 1   
    20    9   29 1   
    21   10   11 1   
    22   10   30 1   
    23   11   12 2   
    24   11   13 1   
    25   13   14 ar  
    26   14   31 1   
    27   15   16 1   
    28   15   32 1   
    29   15   33 1   
    30   16   17 1   
    31   17   18 ar  
    32   17   22 ar  
    33   18   19 ar  
    34   18   34 1   
    35   19   20 ar  
    36   19   35 1   
    37   20   21 ar  
    38   20   36 1   
    39   21   22 ar  
    40   21   37 1   
    41   22   38 1   
@<TRIPOS>SUBSTRUCTURE
     1 KMB         1 TEMP              0 ****  ****    0 ROOT
