@<TRIPOS>MOLECULE
KME
   39    39     1     0     0
SMALL
bcc


@<TRIPOS>ATOM
      1 C1          1.5580   -0.3270   -0.5080 c         1 KME      0.937600
      2 C2          0.0560   -0.3980    0.0010 c3        1 KME      0.204600
      3 O2         -0.1800   -0.9090    1.3250 os        1 KME     -0.375900
      4 C3         -0.5950    0.9800   -0.1560 c3        1 KME     -0.157400
      5 C4         -2.1150    0.9440   -0.2450 c3        1 KME      0.113100
      6 O4         -2.6260    2.1900   -0.6880 oh        1 KME     -0.609800
      7 C5         -2.5630   -0.1840   -1.1920 c3        1 KME      0.088100
      8 O5         -2.1440    0.1000   -2.5150 oh        1 KME     -0.620800
      9 C6         -1.9670   -1.4980   -0.6700 c3        1 KME      0.109100
     10 O6         -0.5410   -1.4270   -0.7660 os        1 KME     -0.391600
     11 C7         -2.3800   -2.6920   -1.5430 c3        1 KME      0.110100
     12 O7         -3.7940   -2.8350   -1.3640 os        1 KME     -0.426600
     13 C8         -1.6620   -3.9770   -1.1120 c3        1 KME      0.099400
     14 O8         -1.3510   -4.7850   -2.2330 oh        1 KME     -0.621800
     15 C9         -4.3960   -3.6060   -2.3900 c3        1 KME      0.116700
     16 C10         0.5970   -0.3910    2.3320 c2        1 KME      0.086100
     17 C11         0.2540   -0.6230    3.6130 c2        1 KME     -0.316200
     18 C12        -0.9250   -1.3870    4.0530 c3        1 KME     -0.024900
     19 O1A         2.4710   -0.6440    0.2890 o         1 KME     -0.798300
     20 O1B         1.6900    0.0860   -1.6860 o         1 KME     -0.798300
     21 H3         -0.2860    1.6190    0.7090 hc        1 KME      0.073200
     22 H3A        -0.1780    1.4400   -1.0930 hc        1 KME      0.073200
     23 H4         -2.5720    0.7930    0.7710 h1        1 KME      0.076700
     24 HO4        -2.3640    2.2830   -1.6140 ho        1 KME      0.407000
     25 H5         -3.6830   -0.2470   -1.2490 h1        1 KME      0.085700
     26 HO5        -1.1800   -0.0190   -2.5390 ho        1 KME      0.434000
     27 H6         -2.2770   -1.6660    0.3960 h1        1 KME      0.073700
     28 H7         -2.1490   -2.4580   -2.6190 h1        1 KME      0.063700
     29 H8         -0.7300   -3.7240   -0.5380 h1        1 KME      0.071200
     30 H8A        -2.3420   -4.6100   -0.4810 h1        1 KME      0.071200
     31 HO8        -0.6330   -4.3440   -2.7040 ho        1 KME      0.406000
     32 H9         -5.4510   -3.7500   -2.0520 h1        1 KME      0.031367
     33 H9A        -3.8760   -4.5900   -2.5040 h1        1 KME      0.031367
     34 H9B        -4.3690   -3.0480   -3.3600 h1        1 KME      0.031367
     35 H10         1.5000    0.1670    2.0280 h4        1 KME      0.173000
     36 H11         0.9060   -0.2360    4.4090 ha        1 KME      0.111000
     37 H12        -1.5720   -1.6700    3.1860 hc        1 KME      0.021033
     38 H12A       -0.6100   -2.3260    4.5750 hc        1 KME      0.021033
     39 H12B       -1.5380   -0.7850    4.7700 hc        1 KME      0.021033
@<TRIPOS>BOND
     1    1    2 1   
     2    1   19 1   
     3    1   20 1   
     4    2    3 1   
     5    2    4 1   
     6    2   10 1   
     7    3   16 1   
     8    4    5 1   
     9    4   21 1   
    10    4   22 1   
    11    5    6 1   
    12    5    7 1   
    13    5   23 1   
    14    6   24 1   
    15    7    8 1   
    16    7    9 1   
    17    7   25 1   
    18    8   26 1   
    19    9   10 1   
    20    9   11 1   
    21    9   27 1   
    22   11   12 1   
    23   11   13 1   
    24   11   28 1   
    25   12   15 1   
    26   13   14 1   
    27   13   29 1   
    28   13   30 1   
    29   14   31 1   
    30   15   32 1   
    31   15   33 1   
    32   15   34 1   
    33   16   17 2   
    34   16   35 1   
    35   17   18 1   
    36   17   36 1   
    37   18   37 1   
    38   18   38 1   
    39   18   39 1   
@<TRIPOS>SUBSTRUCTURE
     1 KME         1 TEMP              0 ****  ****    0 ROOT
