@<TRIPOS>MOLECULE
molecule
   39    39     1     0     0
SMALL
bcc


@<TRIPOS>ATOM
      1 C1           1.5070     0.0000     0.0000 c          1 KME       0.890600
      2 C2           0.0000     0.0000     0.0000 c3         1 KME       0.237600
      3 O2          -0.4770     0.0000     1.3470 os         1 KME      -0.364900
      4 C3          -0.5100     1.2490    -0.7230 c3         1 KME      -0.076400
      5 C4          -2.0410     1.2120    -0.7730 c3         1 KME       0.109100
      6 O4          -2.5240     2.3380    -1.5070 oh         1 KME      -0.614800
      7 C5          -2.4870    -0.0820    -1.4600 c3         1 KME       0.120100
      8 O5          -2.0200    -0.0890    -2.8110 oh         1 KME      -0.579800
      9 C6          -1.9010    -1.2800    -0.7090 c3         1 KME       0.148100
     10 O6          -0.4760    -1.1670    -0.6740 os         1 KME      -0.396600
     11 C7          -2.2930    -2.5720    -1.4260 c3         1 KME       0.155100
     12 O7          -3.7170    -2.6850    -1.4620 os         1 KME      -0.436600
     13 C8          -1.7060    -3.7700    -0.6750 c3         1 KME       0.112400
     14 O8          -1.9740    -4.9690    -1.4070 oh         1 KME      -0.626800
     15 C9          -4.2160    -3.3940    -2.5980 c3         1 KME       0.140700
     16 C10         -0.1130    -1.0460     2.1290 c2         1 KME       0.112100
     17 C11         -0.5190    -1.1050     3.3810 c2         1 KME      -0.329200
     18 C12         -0.1150    -2.2680     4.2500 c3         1 KME      -0.021900
     19 O1A          2.1120    -0.0920     1.0420 o          1 KME      -0.808300
     20 O1B          2.1780     0.0950    -1.1590 o          1 KME      -0.808300
     21 H3          -0.1170     1.2680    -1.7320 hc         1 KME       0.084200
     22 H3A         -0.1880     2.1340    -0.1870 hc         1 KME       0.084200
     23 H4          -2.4340     1.2370     0.2360 h1         1 KME       0.040700
     24 HO4         -3.0060     2.9060    -0.9300 ho         1 KME       0.389000
     25 H5          -3.5690    -0.1420    -1.4460 h1         1 KME       0.032700
     26 HO5         -2.6610     0.3210    -3.3670 ho         1 KME       0.392000
     27 H6          -2.2860    -1.2920     0.3030 h1         1 KME       0.055700
     28 H7          -1.9060    -2.5560    -2.4380 h1         1 KME       0.077700
     29 H8          -0.6360    -3.6420    -0.5700 h1         1 KME       0.043700
     30 H8A         -2.1600    -3.8380     0.3070 h1         1 KME       0.043700
     31 HO8         -1.4690    -5.6780    -1.0450 ho         1 KME       0.395000
     32 H9          -5.0400    -2.8420    -3.0350 h1         1 KME       0.026033
     33 H9A         -3.4260    -3.5040    -3.3310 h1         1 KME       0.026033
     34 H9B         -4.5610    -4.3740    -2.2890 h1         1 KME       0.026033
     35 H10          0.5120    -1.8330     1.7250 h4         1 KME       0.141000
     36 H11         -1.1440    -0.3180     3.7850 ha         1 KME       0.116000
     37 H12          0.9570    -2.4120     4.1850 hc         1 KME       0.021367
     38 H12A        -0.3890    -2.0620     5.2780 hc         1 KME       0.021367
     39 H12B        -0.6210    -3.1640     3.9130 hc         1 KME       0.021367
@<TRIPOS>BOND
     1    19     1 1
     2    20     1 1
     3     1     2 1
     4    10     2 1
     5     4     2 1
     6     2     3 1
     7     3    16 1
     8     4     5 1
     9     4    21 1
    10     4    22 1
    11     7     5 1
    12     6     5 1
    13     5    23 1
    14     6    24 1
    15     8     7 1
    16     7     9 1
    17     7    25 1
    18     8    26 1
    19    11     9 1
    20    10     9 1
    21     9    27 1
    22    12    11 1
    23    11    13 1
    24    11    28 1
    25    15    12 1
    26    14    13 1
    27    13    29 1
    28    13    30 1
    29    14    31 1
    30    15    32 1
    31    15    33 1
    32    15    34 1
    33    16    17 2
    34    16    35 1
    35    17    18 1
    36    17    36 1
    37    18    37 1
    38    18    38 1
    39    18    39 1
@<TRIPOS>SUBSTRUCTURE
     1 KME         1 TEMP              0 ****  ****    0 ROOT
