@<TRIPOS>MOLECULE
molecule
   35    36     1     0     0
SMALL
bcc


@<TRIPOS>ATOM
      1 C01          0.0000     0.0000     0.0000 c3         1 KMG      -0.032900
      2 C02          1.5070     0.0000     0.0000 cc         1 KMG      -0.063300
      3 C05          3.7070    -0.0010     0.6230 ca         1 KMG      -0.039000
      4 C06          2.3210     0.0000     1.1170 ca         1 KMG      -0.187000
      5 C07          2.0960     0.0000     2.5100 ca         1 KMG      -0.080000
      6 C08          3.1590     0.0000     3.3610 ca         1 KMG       0.096600
      7 C11          3.3140    -2.6900     5.1280 c3         1 KMG      -0.220600
      8 C12          3.9360    -3.7490     6.0400 c3         1 KMG      -0.061400
      9 C13          3.5520    -5.1420     5.5400 c3         1 KMG      -0.074400
     10 C14          4.1730    -6.2010     6.4520 c3         1 KMG      -0.093100
     11 C17          4.4790    -0.0000     2.8880 ca         1 KMG      -0.135000
     12 C18          4.7610    -0.0000     1.5610 ca         1 KMG      -0.089000
     13 N03          2.2960    -0.0050    -1.0850 na         1 KMG       0.023800
     14 N04          3.6410    -0.0100    -0.6970 nc         1 KMG      -0.270400
     15 N09          2.9290     0.0010     4.7410 nu         1 KMG      -0.771500
     16 O15          3.2350    -0.8070     7.0170 o          1 KMG      -0.630800
     17 O16          5.1350    -0.7630     5.4330 o          1 KMG      -0.630800
     18 S10          3.7710    -1.0370     5.7210 s6         1 KMG       1.327900
     19 H1          -0.3610    -0.8860     0.5090 hc         1 KMG       0.054700
     20 H2          -0.3610     0.0020    -1.0210 hc         1 KMG       0.054700
     21 H3          -0.3610     0.8830     0.5130 hc         1 KMG       0.054700
     22 H4           1.0850     0.0000     2.8990 ha         1 KMG       0.130000
     23 H5           2.2360    -2.7920     5.1390 h1         1 KMG       0.101200
     24 H6           3.6790    -2.8240     4.1170 h1         1 KMG       0.101200
     25 H7           3.5710    -3.6140     7.0510 hc         1 KMG       0.055700
     26 H8           5.0150    -3.6460     6.0290 hc         1 KMG       0.055700
     27 H9           3.9180    -5.2770     4.5290 hc         1 KMG       0.043700
     28 H10          2.4740    -5.2450     5.5500 hc         1 KMG       0.043700
     29 H11          3.9010    -7.1880     6.0980 hc         1 KMG       0.036367
     30 H12          5.2520    -6.0980     6.4430 hc         1 KMG       0.036367
     31 H13          3.8070    -6.0670     7.4630 hc         1 KMG       0.036367
     32 H14          5.2960    -0.0000     3.6000 ha         1 KMG       0.184000
     33 H15          5.7900    -0.0010     1.2230 ha         1 KMG       0.148000
     34 H16          1.9710    -0.0060    -2.0320 hn         1 KMG       0.331700
     35 H17          2.2850     0.6540     5.1410 hn         1 KMG       0.462800
@<TRIPOS>BOND
     1    14    13 1
     2    14     3 2
     3    12     3 ar
     4    12    11 ar
     5    13     2 1
     6     3     4 ar
     7    11     6 ar
     8     2     4 2
     9     2     1 1
    10     4     5 ar
    11     6     5 ar
    12     6    15 1
    13    15    18 1
    14    17    18 2
    15    18    16 2
    16    18     7 1
    17     7     8 1
    18     8     9 1
    19     9    10 1
    20     1    19 1
    21     1    20 1
    22     1    21 1
    23     5    22 1
    24     7    23 1
    25     7    24 1
    26     8    25 1
    27     8    26 1
    28     9    27 1
    29     9    28 1
    30    10    29 1
    31    10    30 1
    32    10    31 1
    33    11    32 1
    34    12    33 1
    35    13    34 1
    36    15    35 1
@<TRIPOS>SUBSTRUCTURE
     1 KMG         1 TEMP              0 ****  ****    0 ROOT
