@<TRIPOS>MOLECULE
KMH
   21    20     1     0     0
SMALL
bcc


@<TRIPOS>ATOM
      1 N            0.0000     0.0000     0.0000 nz         1 KMH       0.042400
      2 CB           1.4680     0.0000     0.0000 c3         1 KMH      -0.058500
      3 CG           1.9790     0.0000     1.4430 c3         1 KMH      -0.007100
      4 CE           1.4500    -2.0080    -4.4900 c          1 KMH       0.966600
      5 OF1          1.6750    -2.8720    -5.4920 o          1 KMH      -0.856800
      6 OF2          0.8340    -0.9890    -4.6970 o          1 KMH      -0.856800
      7 CA           1.9780    -1.2500    -0.7210 c3         1 KMH      -0.169400
      8 C            1.5800    -1.1910    -2.1730 c          1 KMH       0.592100
      9 C2           1.9630    -2.3090    -3.1060 c3         1 KMH      -0.216400
     10 O            0.9530    -0.2450    -2.5880 o          1 KMH      -0.521100
     11 HN1         -0.3330     0.7490     0.5740 hn         1 KMH       0.231800
     12 HN2         -0.3340    -0.8710     0.3620 hn         1 KMH       0.231800
     13 HB           1.8300     0.8840    -0.5110 hx         1 KMH       0.104700
     14 HG1C         1.6350     0.8950     1.9470 hc         1 KMH       0.029367
     15 HG2C         1.6000    -0.8740     1.9590 hc         1 KMH       0.029367
     16 HG3C         3.0620    -0.0210     1.4420 hc         1 KMH       0.029367
     17 HA1C         1.5460    -2.1320    -0.2640 hc         1 KMH       0.060200
     18 HA2C         3.0580    -1.2960    -0.6440 hc         1 KMH       0.060200
     19 H21C         1.5300    -3.2380    -2.7550 hc         1 KMH       0.039200
     20 H22C         3.0420    -2.4030    -3.1340 hc         1 KMH       0.039200
     21 HN3         -0.3340     0.1210    -0.9360 hn         1 KMH       0.231800
@<TRIPOS>BOND
     1     1     2 1   
     2     1    11 1   
     3     1    12 1   
     4     1    21 1   
     5     2     3 1   
     6     2     7 1   
     7     2    13 1   
     8     3    14 1   
     9     3    15 1   
    10     3    16 1   
    11     4     5 1   
    12     4     6 1   
    13     4     9 1   
    14     7     8 1   
    15     7    17 1   
    16     7    18 1   
    17     8     9 1   
    18     8    10 2   
    19     9    19 1   
    20     9    20 1   
@<TRIPOS>SUBSTRUCTURE
     1 KMH         1 TEMP              0 ****  ****    0 ROOT
