@<TRIPOS>MOLECULE
molecule
   21    20     1     0     0
SMALL
bcc


@<TRIPOS>ATOM
      1 N            0.0000     0.0000     0.0000 nz         1 KMH      -0.810600
      2 CB           1.4680     0.0000     0.0000 c3         1 KMH       0.112500
      3 CG           1.9790     0.0000     1.4430 c3         1 KMH      -0.123100
      4 CE           1.4500    -2.0080    -4.4900 c          1 KMH       0.885600
      5 OF1          1.6750    -2.8720    -5.4920 o          1 KMH      -0.808300
      6 OF2          0.8340    -0.9890    -4.6970 o          1 KMH      -0.808300
      7 CA           1.9780    -1.2500    -0.7210 c3         1 KMH      -0.235400
      8 C            1.5800    -1.1910    -2.1730 c          1 KMH       0.555100
      9 C2           1.9630    -2.3090    -3.1060 c3         1 KMH      -0.279400
     10 O            0.9530    -0.2450    -2.5880 o          1 KMH      -0.501100
     11 HN1         -0.3330     0.7490     0.5740 hn         1 KMH       0.455467
     12 HN2         -0.3340    -0.8710     0.3620 hn         1 KMH       0.455467
     13 HB           1.8300     0.8840    -0.5110 hx         1 KMH       0.129700
     14 HG1C         1.6350     0.8950     1.9470 hc         1 KMH       0.066033
     15 HG2C         1.6000    -0.8740     1.9590 hc         1 KMH       0.066033
     16 HG3C         3.0620    -0.0210     1.4420 hc         1 KMH       0.066033
     17 HA1C         1.5460    -2.1320    -0.2640 hc         1 KMH       0.091200
     18 HA2C         3.0580    -1.2960    -0.6440 hc         1 KMH       0.091200
     19 H21C         1.5300    -3.2380    -2.7550 hc         1 KMH       0.068200
     20 H22C         3.0420    -2.4030    -3.1340 hc         1 KMH       0.068200
     21 HN3         -0.3340     0.1210    -0.9360 hn         1 KMH       0.455467
@<TRIPOS>BOND
     1     1     2 1
     2     2     3 1
     3     2     7 1
     4     4     6 1
     5     4     5 1
     6     4     9 1
     7     7     8 1
     8     8    10 2
     9     8     9 1
    10     1    11 1
    11     1    12 1
    12     2    13 1
    13     3    14 1
    14     3    15 1
    15     3    16 1
    16     7    17 1
    17     7    18 1
    18     9    19 1
    19     9    20 1
    20    21     1 1
@<TRIPOS>SUBSTRUCTURE
     1 KMH         1 TEMP              0 ****  ****    0 ROOT
