@<TRIPOS>MOLECULE
KMN
   63    65     1     0     0
SMALL
bcc


@<TRIPOS>ATOM
      1 C            6.3790    -1.5720    -7.0130 c1         1 KMN      -0.164500
      2 O            0.0000     0.0000     0.0000 os         1 KMN      -0.353900
      3 C01          2.2780    -0.6710    -4.0030 ca         1 KMN       0.022000
      4 C1           1.2840    -1.6360    -5.8140 ca         1 KMN      -0.123300
      5 N1          -0.3450    -3.5800    -6.1800 n3         1 KMN      -0.687600
      6 C02          3.8150    -0.7730    -4.7630 ca         1 KMN      -0.093000
      7 C2          -0.0700    -2.3460    -6.6170 c3         1 KMN       0.233100
      8 N2          -1.9340    -7.1710    -4.8810 n3         1 KMN      -0.692600
      9 C03         -0.6560    -4.3950    -7.3910 c3         1 KMN       0.233300
     10 C3           1.3450    -1.1640    -4.7820 ca         1 KMN      -0.097000
     11 C04          2.3240     0.0150    -2.4890 cg         1 KMN      -0.063000
     12 C4           3.7330    -1.2020    -5.6920 ca         1 KMN       0.153000
     13 C05          1.9200    -0.0010    -1.3870 c1         1 KMN      -0.275100
     14 C06          1.4290     0.0000     0.0000 c3         1 KMN       0.145500
     15 C07         -0.6170     0.0000     1.2110 ca         1 KMN       0.176100
     16 C7           2.8390    -1.7270    -6.5550 ca         1 KMN       0.103100
     17 C08         -2.0020    -0.0000     1.2850 ca         1 KMN      -0.187000
     18 C8          -0.9330    -5.7720    -6.5450 c3         1 KMN      -0.041400
     19 C09         -2.6270     0.0010     2.5170 ca         1 KMN      -0.074500
     20 C10         -2.0420    -5.6600    -5.3060 c3         1 KMN       0.082500
     21 C11         -2.3820    -7.3000    -3.3240 c3         1 KMN      -0.060700
     22 C12         -2.8040    -8.3900    -2.5310 c3         1 KMN      -0.055100
     23 C13         -3.1720    -7.9430    -5.7410 c3         1 KMN      -0.060700
     24 C14         -4.1340    -6.8090    -6.2550 c3         1 KMN      -0.055100
     25 C15         -1.1680    -4.9020    -4.5570 c3         1 KMN      -0.041400
     26 C16         -0.9980    -3.3170    -4.6900 c3         1 KMN       0.233300
     27 C17         -1.8730     0.0010     3.6760 ca         1 KMN      -0.137000
     28 C18         -0.4920     0.0020     3.6050 ca         1 KMN      -0.074500
     29 C19          0.1380    -0.0050     2.3760 ca         1 KMN      -0.187000
     30 C20          5.2280    -1.2690    -6.5970 cg         1 KMN      -0.232000
     31 H            7.3650    -1.5050    -7.4580 ha         1 KMN       0.139500
     32 H061         1.5870    -1.0250    -0.3130 h1         1 KMN       0.169700
     33 H062         1.5590     1.0020    -0.3910 h1         1 KMN       0.169700
     34 H02          4.3600     0.0350    -4.2910 ha         1 KMN       0.155000
     35 H3           0.3250    -1.0330    -4.4420 ha         1 KMN       0.100000
     36 H21C        -0.9120    -1.9130    -6.0910 h1         1 KMN       0.004700
     37 H22C        -0.0670    -1.9310    -7.6170 h1         1 KMN       0.004700
     38 H031        -1.5580    -3.8690    -7.6800 h1         1 KMN       0.037700
     39 H032         0.2980    -4.4930    -7.8940 h1         1 KMN       0.037700
     40 H161        -1.8690    -2.7330    -4.9590 h1         1 KMN       0.037700
     41 H162        -0.2150    -2.8210    -4.1280 h1         1 KMN       0.037700
     42 H1           3.0160    -3.1690    -7.6840 ho         1 KMN       0.402000
     43 H10         -2.9380    -5.6280    -5.9140 h1         1 KMN       0.150700
     44 H111        -3.3820    -7.4110    -3.7240 h1         1 KMN       0.116950
     45 H112        -1.4030    -7.7640    -3.2880 h1         1 KMN       0.116950
     46 H131        -3.4130    -8.5410    -4.8700 h1         1 KMN       0.116950
     47 H132        -2.4730    -8.4800    -6.3700 h1         1 KMN       0.116950
     48 H81C        -1.5510    -6.2100    -7.3200 hc         1 KMN       0.018950
     49 H82C        -0.0100    -6.2770    -6.2860 hc         1 KMN       0.018950
     50 H08         -2.6080    -0.5210     0.5530 ha         1 KMN       0.124500
     51 H19          1.1450    -0.3900     2.2670 ha         1 KMN       0.124500
     52 H09         -3.6200     0.3250     2.2310 ha         1 KMN       0.114000
     53 H17         -2.2000    -0.2420     4.6790 ha         1 KMN       0.108000
     54 H151        -1.9060    -4.8600    -3.7650 hc         1 KMN       0.018950
     55 H152        -0.4170    -5.4000    -3.9560 hc         1 KMN       0.018950
     56 H121        -2.6500    -9.3470    -3.0160 hc         1 KMN       0.041033
     57 H122        -3.7370    -8.1550    -2.0330 hc         1 KMN       0.041033
     58 H123        -2.0430    -8.1850    -1.7890 hc         1 KMN       0.041033
     59 H141        -4.6680    -6.5000    -5.3640 hc         1 KMN       0.041033
     60 H142        -3.2810    -6.2080    -6.5480 hc         1 KMN       0.041033
     61 H143        -4.5130    -7.4330    -7.0550 hc         1 KMN       0.041033
     62 H18         -0.0510     0.3190     4.5420 ha         1 KMN       0.114000
     63 O1           3.0950    -2.2490    -7.8750 oh         1 KMN      -0.447100
@<TRIPOS>BOND
     1     1    30 3   
     2     1    31 1   
     3     2    14 1   
     4     2    15 1   
     5     3     6 ar  
     6     3    10 ar  
     7     3    11 1   
     8     4     7 1   
     9     4    10 ar  
    10     4    16 ar  
    11     5     7 1   
    12     5     9 1   
    13     5    26 1   
    14     6    12 ar  
    15     6    34 1   
    16     7    36 1   
    17     7    37 1   
    18     8    20 1   
    19     8    21 1   
    20     8    23 1   
    21     9    18 1   
    22     9    38 1   
    23     9    39 1   
    24    10    35 1   
    25    11    13 3   
    26    12    16 ar  
    27    12    30 1   
    28    13    14 1   
    29    14    32 1   
    30    14    33 1   
    31    15    17 ar  
    32    15    29 ar  
    33    16    63 1   
    34    17    19 ar  
    35    17    50 1   
    36    18    20 1   
    37    18    48 1   
    38    18    49 1   
    39    19    27 ar  
    40    19    52 1   
    41    20    25 1   
    42    20    43 1   
    43    21    22 1   
    44    21    44 1   
    45    21    45 1   
    46    22    56 1   
    47    22    57 1   
    48    22    58 1   
    49    23    24 1   
    50    23    46 1   
    51    23    47 1   
    52    24    59 1   
    53    24    60 1   
    54    24    61 1   
    55    25    26 1   
    56    25    54 1   
    57    25    55 1   
    58    26    40 1   
    59    26    41 1   
    60    27    28 ar  
    61    27    53 1   
    62    28    29 ar  
    63    28    62 1   
    64    29    51 1   
    65    42    63 1   
@<TRIPOS>SUBSTRUCTURE
     1 KMN         1 TEMP              0 ****  ****    0 ROOT
