@<TRIPOS>MOLECULE
molecule
   63    65     1     0     0
SMALL
bcc


@<TRIPOS>ATOM
      1 C            6.3790    -1.5720    -7.0130 c1         1 KMN      -0.192500
      2 O            0.0000     0.0000     0.0000 os         1 KMN      -0.380900
      3 C01          2.2780    -0.6710    -4.0030 ca         1 KMN      -0.022000
      4 C1           1.2840    -1.6360    -5.8140 ca         1 KMN      -0.111300
      5 N1          -0.3450    -3.5800    -6.1800 n3         1 KMN      -0.888600
      6 C02          3.8150    -0.7730    -4.7630 ca         1 KMN      -0.101000
      7 C2          -0.0700    -2.3460    -6.6170 c3         1 KMN       0.244100
      8 N2          -1.9340    -7.1710    -4.8810 n3         1 KMN      -0.717600
      9 C03         -0.6560    -4.3950    -7.3910 c3         1 KMN       0.230300
     10 C3           1.3450    -1.1640    -4.7820 ca         1 KMN      -0.095000
     11 C04          2.3240     0.0150    -2.4890 cg         1 KMN      -0.072000
     12 C4           3.7330    -1.2020    -5.6920 ca         1 KMN       0.130000
     13 C05          1.9200    -0.0010    -1.3870 c1         1 KMN      -0.250100
     14 C06          1.4290     0.0000     0.0000 c3         1 KMN       0.079500
     15 C07         -0.6170     0.0000     1.2110 ca         1 KMN       0.162100
     16 C7           2.8390    -1.7270    -6.5550 ca         1 KMN       0.071100
     17 C08         -2.0020    -0.0000     1.2850 ca         1 KMN      -0.196000
     18 C8          -0.9330    -5.7720    -6.5450 c3         1 KMN      -0.063900
     19 C09         -2.6270     0.0010     2.5170 ca         1 KMN      -0.105000
     20 C10         -2.0420    -5.6600    -5.3060 c3         1 KMN       0.076500
     21 C11         -2.3820    -7.3000    -3.3240 c3         1 KMN      -0.092700
     22 C12         -2.8040    -8.3900    -2.5310 c3         1 KMN      -0.128600
     23 C13         -3.1720    -7.9430    -5.7410 c3         1 KMN      -0.092700
     24 C14         -4.1340    -6.8090    -6.2550 c3         1 KMN      -0.128600
     25 C15         -1.1680    -4.9020    -4.5570 c3         1 KMN      -0.063900
     26 C16         -0.9980    -3.3170    -4.6900 c3         1 KMN       0.230300
     27 C17         -1.8730     0.0010     3.6760 ca         1 KMN      -0.161000
     28 C18         -0.4920     0.0020     3.6050 ca         1 KMN      -0.105000
     29 C19          0.1380    -0.0050     2.3760 ca         1 KMN      -0.196000
     30 C20          5.2280    -1.2690    -6.5970 cg         1 KMN      -0.203000
     31 H            7.3650    -1.5050    -7.4580 ha         1 KMN       0.166500
     32 H061         1.5870    -1.0250    -0.3130 h1         1 KMN       0.208200
     33 H062         1.5590     1.0020    -0.3910 h1         1 KMN       0.208200
     34 H02          4.3600     0.0350    -4.2910 ha         1 KMN       0.177000
     35 H3           0.3250    -1.0330    -4.4420 ha         1 KMN       0.120000
     36 H21C        -0.9120    -1.9130    -6.0910 h1         1 KMN       0.028200
     37 H22C        -0.0670    -1.9310    -7.6170 h1         1 KMN       0.028200
     38 H031        -1.5580    -3.8690    -7.6800 h1         1 KMN       0.070450
     39 H032         0.2980    -4.4930    -7.8940 h1         1 KMN       0.070450
     40 H161        -1.8690    -2.7330    -4.9590 h1         1 KMN       0.070450
     41 H162        -0.2150    -2.8210    -4.1280 h1         1 KMN       0.070450
     42 H1           3.0160    -3.1690    -7.6840 ho         1 KMN       0.415000
     43 H10         -2.9380    -5.6280    -5.9140 h1         1 KMN       0.155700
     44 H111        -3.3820    -7.4110    -3.7240 h1         1 KMN       0.137200
     45 H112        -1.4030    -7.7640    -3.2880 h1         1 KMN       0.137200
     46 H131        -3.4130    -8.5410    -4.8700 h1         1 KMN       0.137200
     47 H132        -2.4730    -8.4800    -6.3700 h1         1 KMN       0.137200
     48 H81C        -1.5510    -6.2100    -7.3200 hc         1 KMN       0.042200
     49 H82C        -0.0100    -6.2770    -6.2860 hc         1 KMN       0.042200
     50 H08         -2.6080    -0.5210     0.5530 ha         1 KMN       0.145500
     51 H19          1.1450    -0.3900     2.2670 ha         1 KMN       0.145500
     52 H09         -3.6200     0.3250     2.2310 ha         1 KMN       0.142500
     53 H17         -2.2000    -0.2420     4.6790 ha         1 KMN       0.133000
     54 H151        -1.9060    -4.8600    -3.7650 hc         1 KMN       0.042200
     55 H152        -0.4170    -5.4000    -3.9560 hc         1 KMN       0.042200
     56 H121        -2.6500    -9.3470    -3.0160 hc         1 KMN       0.066367
     57 H122        -3.7370    -8.1550    -2.0330 hc         1 KMN       0.066367
     58 H123        -2.0430    -8.1850    -1.7890 hc         1 KMN       0.066367
     59 H141        -4.6680    -6.5000    -5.3640 hc         1 KMN       0.066367
     60 H142        -3.2810    -6.2080    -6.5480 hc         1 KMN       0.066367
     61 H143        -4.5130    -7.4330    -7.0550 hc         1 KMN       0.066367
     62 H18         -0.0510     0.3190     4.5420 ha         1 KMN       0.142500
     63 O1           3.0950    -2.2490    -7.8750 oh         1 KMN      -0.467100
@<TRIPOS>BOND
     1     1    30 3
     2     2    14 1
     3     2    15 1
     4     3     6 ar
     5     3    10 ar
     6     3    11 1
     7     4     7 1
     8     4    10 ar
     9     4    16 ar
    10     5     7 1
    11     5     9 1
    12     5    26 1
    13    63    16 1
    14     6    12 ar
    15     8    20 1
    16     8    21 1
    17     8    23 1
    18     9    18 1
    19    11    13 3
    20    12    16 ar
    21    12    30 1
    22    13    14 1
    23    15    17 ar
    24    15    29 ar
    25    17    19 ar
    26    18    20 1
    27    19    27 ar
    28    20    25 1
    29    21    22 1
    30    23    24 1
    31    25    26 1
    32    27    28 ar
    33    28    29 ar
    34     1    31 1
    35    14    32 1
    36    14    33 1
    37     6    34 1
    38    10    35 1
    39     7    36 1
    40     7    37 1
    41     9    38 1
    42     9    39 1
    43    26    40 1
    44    26    41 1
    45    63    42 1
    46    20    43 1
    47    21    44 1
    48    21    45 1
    49    23    46 1
    50    23    47 1
    51    18    48 1
    52    18    49 1
    53    17    50 1
    54    29    51 1
    55    19    52 1
    56    27    53 1
    57    25    54 1
    58    25    55 1
    59    22    56 1
    60    22    57 1
    61    22    58 1
    62    24    59 1
    63    24    60 1
    64    24    61 1
    65    28    62 1
@<TRIPOS>SUBSTRUCTURE
     1 KMN         1 TEMP              0 ****  ****    0 ROOT
