@<TRIPOS>MOLECULE
KMP
   31    33     1     0     0
SMALL
bcc


@<TRIPOS>ATOM
      1 C1         -0.0660   -0.1020    0.1180 ca        1 KMP     -0.353000
      2 C2          1.3290   -0.1390    0.0230 ca        1 KMP      0.254100
      3 C3          2.1480   -0.0990    1.1780 ca        1 KMP     -0.280600
      4 C4          1.5050   -0.0220    2.4290 ca        1 KMP      0.220100
      5 C5          0.1080    0.0170    2.5580 ca        1 KMP     -0.236000
      6 C6         -0.6600   -0.0240    1.3890 ca        1 KMP      0.224100
      7 C9          3.6020   -0.1340    1.1120 c         1 KMP      0.584900
      8 C10         4.2660   -0.0930    2.4320 cc        1 KMP     -0.069100
      9 C11         3.5790   -0.0130    3.6050 cd        1 KMP      0.139900
     10 C14         4.1180    0.0490    4.9590 ca        1 KMP     -0.092800
     11 C15         5.3670   -0.5130    5.2540 ca        1 KMP     -0.054000
     12 C16         5.8830   -0.4450    6.5450 ca        1 KMP     -0.196000
     13 C17         5.1410    0.1880    7.5520 ca        1 KMP      0.142100
     14 C18         3.8840    0.7520    7.2720 ca        1 KMP     -0.196000
     15 C19         3.3830    0.6760    5.9810 ca        1 KMP     -0.054000
     16 O12         2.1840    0.0220    3.6270 os        1 KMP     -0.212200
     17 O13         4.2800   -0.1860    0.0760 o         1 KMP     -0.539100
     18 O24         5.5870    0.2940    8.8470 oh        1 KMP     -0.494100
     19 O27         5.6430   -0.1350    2.4560 oh        1 KMP     -0.492100
     20 O29        -2.0200    0.0160    1.5560 oh        1 KMP     -0.483100
     21 O30         1.9670   -0.2160   -1.1820 oh        1 KMP     -0.451100
     22 H1         -0.6880   -0.1340   -0.7860 ha        1 KMP      0.144000
     23 H5         -0.3660    0.0760    3.5460 ha        1 KMP      0.176000
     24 H15         5.9500   -1.0110    4.4610 ha        1 KMP      0.154500
     25 H16         6.8650   -0.8840    6.7710 ha        1 KMP      0.146000
     26 H18         3.3180    1.2430    8.0770 ha        1 KMP      0.146000
     27 H19         2.3970    1.1120    5.7510 ha        1 KMP      0.154500
     28 H24         6.4580   -0.1260    8.9000 ho        1 KMP      0.422000
     29 H27         5.9460   -0.0900    1.5310 ho        1 KMP      0.445000
     30 H29        -2.4360   -0.0210    0.6810 ho        1 KMP      0.428000
     31 H30         1.2950   -0.2360   -1.8830 ho        1 KMP      0.424000
@<TRIPOS>BOND
     1    1    2 ar
     2    1    6 ar
     3    1   22 1
     4    2    3 ar
     5    2   21 1
     6    3    4 ar
     7    3    7 1
     8    4    5 ar
     9    4   16 1
    10    5    6 ar
    11    5   23 1
    12    6   20 1
    13    7    8 1
    14    7   17 2
    15    8    9 2
    16    8   19 1
    17    9   10 1
    18    9   16 1
    19   10   11 ar
    20   10   15 ar
    21   11   12 ar
    22   11   24 1
    23   12   13 ar
    24   12   25 1
    25   13   14 ar
    26   13   18 1
    27   14   15 ar
    28   14   26 1
    29   15   27 1
    30   18   28 1
    31   19   29 1
    32   20   30 1
    33   21   31 1
@<TRIPOS>SUBSTRUCTURE
     1 KMP         1 TEMP              0 ****  ****    0 ROOT
