@<TRIPOS>MOLECULE
molecule
   16    15     1     0     0
SMALL
bcc


@<TRIPOS>ATOM
      1 C1           0.0000     0.0000     0.0000 c          1 KMT       0.807600
      2 O1           1.3450     0.0000     0.0000 o          1 KMT      -0.810800
      3 O2          -0.6060     0.0000     1.0510 o          1 KMT      -0.810800
      4 C2          -0.7460     0.0000    -1.2900 c          1 KMT       0.477100
      5 O5          -0.1430     0.0000    -2.3360 o          1 KMT      -0.552100
      6 C3          -2.2530    -0.0000    -1.2890 c3         1 KMT      -0.177400
      7 C4          -2.7640     0.0000    -2.7310 c3         1 KMT       0.036700
      8 S1          -4.5770    -0.0000    -2.7310 ss         1 KMT      -0.391200
      9 C5          -4.8940     0.0000    -4.5160 c3         1 KMT       0.001000
     10 H31         -2.6140     0.8840    -0.7780 hc         1 KMT       0.074700
     11 H32         -2.6140    -0.8840    -0.7780 hc         1 KMT       0.074700
     12 H41         -2.4030    -0.8840    -3.2420 h1         1 KMT       0.061700
     13 H42         -2.4030     0.8840    -3.2420 h1         1 KMT       0.061700
     14 H51         -4.4540    -0.8850    -4.9610 h1         1 KMT       0.049367
     15 H52         -5.9630     0.0000    -4.6930 h1         1 KMT       0.049367
     16 H53         -4.4540     0.8850    -4.9610 h1         1 KMT       0.049367
@<TRIPOS>BOND
     1     1     2 1
     2     1     3 1
     3     1     4 1
     4     4     5 2
     5     4     6 1
     6     6     7 1
     7     6    10 1
     8     6    11 1
     9     7     8 1
    10     7    12 1
    11     7    13 1
    12     8     9 1
    13     9    14 1
    14     9    15 1
    15     9    16 1
@<TRIPOS>SUBSTRUCTURE
     1 KMT         1 TEMP              0 ****  ****    0 ROOT
