@<TRIPOS>MOLECULE
KMT
   16    15     1     0     0
SMALL
bcc


@<TRIPOS>ATOM
      1 C1         -0.0790   -0.0600    0.0710 c         1 KMT      0.857600
      2 O1          0.3820    1.0750    0.3620 o         1 KMT     -0.810300
      3 O2         -0.1350   -1.0590    0.8360 o         1 KMT     -0.810300
      4 C2         -0.6740   -0.2290   -1.3370 c         1 KMT      0.471100
      5 O5         -0.0440   -0.6020   -2.3330 o         1 KMT     -0.594100
      6 C3         -2.1450    0.1120   -1.4120 c3        1 KMT     -0.192400
      7 C4         -2.7130   -0.0520   -2.7930 c3        1 KMT      0.016700
      8 S1         -4.4380    0.3680   -2.7480 ss        1 KMT     -0.334200
      9 C5         -4.9100    0.1180   -4.4170 c3        1 KMT     -0.037000
     10 H31        -2.6790   -0.5530   -0.6810 hc        1 KMT      0.078700
     11 H32        -2.2610    1.1710   -1.0570 hc        1 KMT      0.078700
     12 H41        -2.1750    0.6100   -3.5140 h1        1 KMT      0.061700
     13 H42        -2.5830   -1.1050   -3.1430 h1        1 KMT      0.061700
     14 H51        -4.7510   -0.9360   -4.7370 h1        1 KMT      0.051033
     15 H52        -5.9950    0.3600   -4.4840 h1        1 KMT      0.051033
     16 H53        -4.3450    0.7820   -5.1090 h1        1 KMT      0.051033
@<TRIPOS>BOND
     1    1    2 1   
     2    1    3 1   
     3    1    4 1   
     4    4    5 2   
     5    4    6 1   
     6    6    7 1   
     7    6   10 1   
     8    6   11 1   
     9    7    8 1   
    10    7   12 1   
    11    7   13 1   
    12    8    9 1   
    13    9   14 1   
    14    9   15 1   
    15    9   16 1   
@<TRIPOS>SUBSTRUCTURE
     1 KMT         1 TEMP              0 ****  ****    0 ROOT
