@<TRIPOS>MOLECULE
molecule
   20    21     1     0     0
SMALL
bcc


@<TRIPOS>ATOM
      1 O01          0.0000     0.0000     0.0000 o          1 KMY      -0.548100
      2 C02          1.2170     0.0000     0.0000 c          1 KMY       0.712300
      3 N03          1.8900     0.0000     1.1680 ns         1 KMY      -0.468400
      4 O04          1.1810     0.0010     2.3930 oh         1 KMY      -0.355100
      5 C05          1.9510    -0.0070    -1.2710 cc         1 KMY      -0.112600
      6 S06          3.7000    -0.0090    -1.4130 ss         1 KMY      -0.089500
      7 C07          3.6080    -0.0180    -3.1700 ca         1 KMY       0.009900
      8 C08          4.6220    -0.0240    -4.1340 ca         1 KMY      -0.104000
      9 C09          4.3050    -0.0310    -5.4710 ca         1 KMY      -0.099000
     10 C10          2.9750    -0.0320    -5.8730 ca         1 KMY      -0.133000
     11 C11          1.9730    -0.0260    -4.9550 ca         1 KMY      -0.069000
     12 C12          2.2660    -0.0190    -3.5700 ca         1 KMY      -0.093800
     13 C13          1.3790    -0.0190    -2.4810 cd         1 KMY       0.109200
     14 Cl          -0.3440    -0.0270    -2.6900 cl         1 KMY      -0.043400
     15 H03          2.8910     0.0000     1.1690 hn         1 KMY       0.320500
     16 H04          1.7930     0.0050     3.1110 ho         1 KMY       0.401000
     17 H08          5.6610    -0.0230    -3.8250 ha         1 KMY       0.139000
     18 H09          5.0940    -0.0350    -6.2130 ha         1 KMY       0.139000
     19 H10          2.7340    -0.0370    -6.9290 ha         1 KMY       0.139000
     20 H11          0.9410    -0.0270    -5.2850 ha         1 KMY       0.146000
@<TRIPOS>BOND
     1     1     2 2
     2     2     3 1
     3     2     5 1
     4     3     4 1
     5     5     6 1
     6     5    13 2
     7     6     7 1
     8     7     8 ar
     9     7    12 ar
    10     8     9 ar
    11     9    10 ar
    12    10    11 ar
    13    11    12 ar
    14    12    13 1
    15    13    14 1
    16     3    15 1
    17     4    16 1
    18     8    17 1
    19     9    18 1
    20    10    19 1
    21    11    20 1
@<TRIPOS>SUBSTRUCTURE
     1 KMY         1 TEMP              0 ****  ****    0 ROOT
