@<TRIPOS>MOLECULE
KMY
   20    21     1     0     0
SMALL
bcc


@<TRIPOS>ATOM
      1 O01          0.0000     0.0000     0.0000 o          1 KMY      -0.609100
      2 C02          1.2170     0.0000     0.0000 c          1 KMY       0.627300
      3 N03          1.8900     0.0000     1.1680 ns         1 KMY      -0.047400
      4 O04          1.1810     0.0010     2.3930 oh         1 KMY      -0.436100
      5 C05          1.9510    -0.0070    -1.2710 cc         1 KMY      -0.091600
      6 S06          3.7000    -0.0090    -1.4130 ss         1 KMY      -0.209500
      7 C07          3.6080    -0.0180    -3.1700 ca         1 KMY       0.051900
      8 C08          4.6220    -0.0240    -4.1340 ca         1 KMY      -0.065000
      9 C09          4.3050    -0.0310    -5.4710 ca         1 KMY      -0.075000
     10 C10          2.9750    -0.0320    -5.8730 ca         1 KMY      -0.104000
     11 C11          1.9730    -0.0260    -4.9550 ca         1 KMY      -0.042000
     12 C12          2.2660    -0.0190    -3.5700 ca         1 KMY      -0.096800
     13 C13          1.3790    -0.0190    -2.4810 cd         1 KMY       0.040200
     14 Cl          -0.3440    -0.0270    -2.6900 cl         1 KMY       0.059600
     15 H03          2.8910     0.0000     1.1690 hn         1 KMY       0.163500
     16 H04          1.7930     0.0050     3.1110 ho         1 KMY       0.394000
     17 H08          5.6610    -0.0230    -3.8250 ha         1 KMY       0.113000
     18 H09          5.0940    -0.0350    -6.2130 ha         1 KMY       0.108000
     19 H10          2.7340    -0.0370    -6.9290 ha         1 KMY       0.109000
     20 H11          0.9410    -0.0270    -5.2850 ha         1 KMY       0.113000
@<TRIPOS>BOND
     1     1     2 2   
     2     2     3 1   
     3     2     5 1   
     4     3     4 1   
     5     3    15 1   
     6     4    16 1   
     7     5     6 1   
     8     5    13 2   
     9     6     7 1   
    10     7     8 ar  
    11     7    12 ar  
    12     8     9 ar  
    13     8    17 1   
    14     9    10 ar  
    15     9    18 1   
    16    10    11 ar  
    17    10    19 1   
    18    11    12 ar  
    19    11    20 1   
    20    12    13 1   
    21    13    14 1   
@<TRIPOS>SUBSTRUCTURE
     1 KMY         1 TEMP              0 ****  ****    0 ROOT
