@<TRIPOS>MOLECULE
KN0
   43    46     1     0     0
SMALL
bcc


@<TRIPOS>ATOM
      1 CAA        -0.0510   -0.1890    0.0120 ca        1 KN0     -0.054000
      2 CAB         1.3350   -0.3770    0.0180 ca        1 KN0     -0.172000
      3 CAC         2.0550   -0.3100    1.2060 ca        1 KN0     -0.033000
      4 CAD         1.3610   -0.0900    2.3860 ca        1 KN0     -0.212900
      5 CAE        -0.0840    0.0540    2.4040 ca        1 KN0      0.003800
      6 CAF        -0.7770    0.0480    1.1820 ca        1 KN0     -0.184300
      7 CAG         1.7610    0.0630    3.7870 cc        1 KN0      0.425500
      8 NAH         0.6660    0.2580    4.5490 nd        1 KN0     -0.480100
      9 NAI        -0.4340    0.2940    3.7550 na        1 KN0      0.101900
     10 CAJ         3.1330    0.0400    4.2650 ca        1 KN0     -0.165900
     11 CAK        -1.7450    0.0670    4.3580 c3        1 KN0      0.098600
     12 CAL         4.0990    0.8270    3.6220 ca        1 KN0     -0.049000
     13 CAM         5.4220    0.8420    4.0410 ca        1 KN0     -0.196000
     14 CAN         5.7980    0.0470    5.1380 ca        1 KN0      0.175100
     15 CAO         4.8640   -0.7540    5.8040 ca        1 KN0     -0.311000
     16 CAP         3.5310   -0.7520    5.3620 ca        1 KN0      0.196100
     17 OAQ         2.5790   -1.5310    5.9670 oh        1 KN0     -0.473100
     18 OAR         7.1190    0.1020    5.5100 oh        1 KN0     -0.491100
     19 CAS        -1.9230   -1.2680    5.0200 ca        1 KN0     -0.127300
     20 CAT        -2.6750   -2.2680    4.3960 ca        1 KN0     -0.100000
     21 CAU        -2.8780   -3.4910    5.0340 ca        1 KN0     -0.138000
     22 CAV        -2.3280   -3.7220    6.2950 ca        1 KN0     -0.117000
     23 CAW        -1.5740   -2.7280    6.9170 ca        1 KN0     -0.138000
     24 CAX        -1.3700   -1.5030    6.2830 ca        1 KN0     -0.100000
     25 CAY        -2.2650    0.3280    1.0440 c3        1 KN0      0.694200
     26 FAZ        -2.7050    1.4520    1.7020 f         1 KN0     -0.239300
     27 FBA        -2.6950    0.5280   -0.2470 f         1 KN0     -0.239300
     28 FBB        -3.0910   -0.6740    1.4990 f         1 KN0     -0.239300
     29 HAA        -0.5870   -0.2210   -0.9520 ha        1 KN0      0.152000
     30 HAB         1.8550   -0.5660   -0.9330 ha        1 KN0      0.144000
     31 HAC         3.1490   -0.4250    1.2180 ha        1 KN0      0.148000
     32 HAK        -1.8940    0.8790    5.1300 h1        1 KN0      0.078200
     33 HAKA       -2.5180    0.2010    3.5520 h1        1 KN0      0.078200
     34 HAL         3.7930    1.4510    2.7660 ha        1 KN0      0.145000
     35 HAM         6.1750    1.4630    3.5370 ha        1 KN0      0.156000
     36 HAO         5.1640   -1.3740    6.6590 ha        1 KN0      0.138000
     37 HOAQ        2.9990   -2.0060    6.7000 ho        1 KN0      0.420000
     38 HOAR        7.2420   -0.4780    6.2760 ho        1 KN0      0.422000
     39 HAT        -3.1090   -2.0900    3.3990 ha        1 KN0      0.145000
     40 HAU        -3.4710   -4.2740    4.5390 ha        1 KN0      0.132000
     41 HAV        -2.4890   -4.6870    6.7960 ha        1 KN0      0.130000
     42 HAW        -1.1380   -2.9090    7.9100 ha        1 KN0      0.132000
     43 HAX        -0.7660   -0.7220    6.7710 ha        1 KN0      0.145000
@<TRIPOS>BOND
     1    1    2 ar  
     2    1    6 ar  
     3    1   29 1   
     4    2    3 ar  
     5    2   30 1   
     6    3    4 ar  
     7    3   31 1   
     8    4    5 ar  
     9    4    7 1   
    10    5    6 ar  
    11    5    9 1   
    12    6   25 1   
    13    7    8 2   
    14    7   10 1   
    15    8    9 1   
    16    9   11 1   
    17   10   12 ar  
    18   10   16 ar  
    19   11   19 1   
    20   11   32 1   
    21   11   33 1   
    22   12   13 ar  
    23   12   34 1   
    24   13   14 ar  
    25   13   35 1   
    26   14   15 ar  
    27   14   18 1   
    28   15   16 ar  
    29   15   36 1   
    30   16   17 1   
    31   17   37 1   
    32   18   38 1   
    33   19   20 ar  
    34   19   24 ar  
    35   20   21 ar  
    36   20   39 1   
    37   21   22 ar  
    38   21   40 1   
    39   22   23 ar  
    40   22   41 1   
    41   23   24 ar  
    42   23   42 1   
    43   24   43 1   
    44   25   26 1   
    45   25   27 1   
    46   25   28 1   
@<TRIPOS>SUBSTRUCTURE
     1 KN0         1 TEMP              0 ****  ****    0 ROOT
