@<TRIPOS>MOLECULE
molecule
   43    46     1     0     0
SMALL
bcc


@<TRIPOS>ATOM
      1 CAA          0.0000     0.0000     0.0000 ca         1 KN0      -0.033000
      2 CAB          1.3890     0.0000     0.0000 ca         1 KN0      -0.185000
      3 CAC          2.0840     0.0000     1.1760 ca         1 KN0      -0.024000
      4 CAD          1.3930     0.0010     2.3900 ca         1 KN0      -0.243900
      5 CAE         -0.0140     0.0010     2.3950 ca         1 KN0       0.018800
      6 CAF         -0.7020     0.0010     1.1830 ca         1 KN0      -0.216300
      7 CAG          1.8100     0.0020     3.7970 cc         1 KN0       0.427500
      8 NAH          0.7230     0.0020     4.5300 nd         1 KN0      -0.457100
      9 NAI         -0.4070     0.0020     3.7090 na         1 KN0       0.075900
     10 CAJ          3.2050     0.0020     4.2980 ca         1 KN0      -0.126900
     11 CAK         -1.7960     0.0030     4.1760 c3         1 KN0       0.108600
     12 CAL          4.1430     0.8750     3.7510 ca         1 KN0      -0.071000
     13 CAM          5.4410     0.8720     4.2200 ca         1 KN0      -0.183000
     14 CAN          5.8150     0.0010     5.2340 ca         1 KN0       0.146100
     15 CAO          4.8880    -0.8720     5.7820 ca         1 KN0      -0.237000
     16 CAP          3.5810    -0.8720     5.3240 ca         1 KN0       0.168100
     17 OAQ          2.6690    -1.7210     5.8650 oh         1 KN0      -0.482100
     18 OAR          7.0960     0.0030     5.6900 oh         1 KN0      -0.522100
     19 CAS         -2.0470    -1.2300     5.0050 ca         1 KN0      -0.118300
     20 CAT         -2.5810    -2.3610     4.4160 ca         1 KN0      -0.099500
     21 CAU         -2.8120    -3.4930     5.1760 ca         1 KN0      -0.135000
     22 CAV         -2.5080    -3.4940     6.5250 ca         1 KN0      -0.118000
     23 CAW         -1.9750    -2.3620     7.1130 ca         1 KN0      -0.135000
     24 CAX         -1.7390    -1.2330     6.3530 ca         1 KN0      -0.099500
     25 CAY         -2.2090     0.0070     1.1700 c3         1 KN0       0.674200
     26 FAZ         -2.6760     1.1510     1.8270 f          1 KN0      -0.222633
     27 FBA         -2.6630     0.0110    -0.1530 f          1 KN0      -0.222633
     28 FBB         -2.6860    -1.1340     1.8240 f          1 KN0      -0.222633
     29 HAA         -0.5360    -0.0000    -0.9410 ha         1 KN0       0.150000
     30 HAB          1.9260    -0.0000    -0.9410 ha         1 KN0       0.140000
     31 HAC          3.1670    -0.0000     1.1670 ha         1 KN0       0.139000
     32 HAK         -2.4640     0.0080     3.3240 h1         1 KN0       0.077200
     33 HAKA        -1.9730     0.8850     4.7790 h1         1 KN0       0.077200
     34 HAL          3.8540     1.5560     2.9600 ha         1 KN0       0.145000
     35 HAM          6.1700     1.5510     3.7950 ha         1 KN0       0.146000
     36 HAO          5.1830    -1.5480     6.5750 ha         1 KN0       0.147000
     37 HOAQ         3.0830    -2.5470     6.0560 ho         1 KN0       0.423000
     38 HOAR         7.1650     0.5830     6.4310 ho         1 KN0       0.425000
     39 HAT         -2.8180    -2.3610     3.3590 ha         1 KN0       0.141000
     40 HAU         -3.2300    -4.3800     4.7140 ha         1 KN0       0.130000
     41 HAV         -2.6910    -4.3800     7.1210 ha         1 KN0       0.128000
     42 HAW         -1.7350    -2.3630     8.1700 ha         1 KN0       0.130000
     43 HAX         -1.3210    -0.3460     6.8140 ha         1 KN0       0.141000
@<TRIPOS>BOND
     1     2     1 ar
     2     1     6 ar
     3     1    29 1
     4     2     3 ar
     5     2    30 1
     6     3     4 ar
     7     3    31 1
     8     4     5 ar
     9     4     7 1
    10     6     5 ar
    11     5     9 1
    12    25     6 1
    13     7    10 1
    14     7     8 2
    15     9     8 1
    16     9    11 1
    17    12    10 ar
    18    10    16 ar
    19    11    19 1
    20    11    32 1
    21    11    33 1
    22    12    13 ar
    23    12    34 1
    24    13    14 ar
    25    13    35 1
    26    14    18 1
    27    14    15 ar
    28    16    15 ar
    29    15    36 1
    30    16    17 1
    31    17    37 1
    32    18    38 1
    33    19    24 ar
    34    19    20 ar
    35    20    21 ar
    36    20    39 1
    37    21    22 ar
    38    21    40 1
    39    23    22 ar
    40    22    41 1
    41    24    23 ar
    42    23    42 1
    43    24    43 1
    44    26    25 1
    45    28    25 1
    46    25    27 1
@<TRIPOS>SUBSTRUCTURE
     1 KN0         1 TEMP              0 ****  ****    0 ROOT
