@<TRIPOS>MOLECULE
molecule
   37    39     1     0     0
SMALL
bcc


@<TRIPOS>ATOM
      1 CAA          0.0000     0.0000     0.0000 c2         1 KN1      -0.196000
      2 CAG          1.3100     0.0000     0.0000 c2         1 KN1      -0.196200
      3 CAN          2.0620     0.0000     1.3070 c3         1 KN1       0.094500
      4 NAW          3.0000    -1.1250     1.3300 na         1 KN1       0.074900
      5 NAO          2.6790    -2.4390     1.6870 nc         1 KN1      -0.458100
      6 CAV          4.3290    -1.0590     0.9980 ca         1 KN1       0.017800
      7 CAT          5.1640    -0.0270     0.5740 ca         1 KN1      -0.212300
      8 CAX          4.6160     1.3660     0.4000 c3         1 KN1       0.673200
      9 FAE          3.5100     1.3280    -0.4560 f          1 KN1      -0.222633
     10 FAF          4.2250     1.8710     1.6450 f          1 KN1      -0.222633
     11 FAD          5.6030     2.1900    -0.1490 f          1 KN1      -0.222633
     12 CAJ          6.4810    -0.2820     0.3160 ca         1 KN1      -0.035000
     13 CAH          7.0020    -1.5610     0.4710 ca         1 KN1      -0.185000
     14 CAL          6.2060    -2.5890     0.8860 ca         1 KN1      -0.025000
     15 CAU          4.8560    -2.3530     1.1570 ca         1 KN1      -0.244900
     16 CAS          3.7430    -3.2000     1.6020 cd         1 KN1       0.427500
     17 CAR          3.8100    -4.6500     1.8980 ca         1 KN1      -0.127900
     18 CAK          4.8400    -5.1550     2.6890 ca         1 KN1      -0.070000
     19 CAI          4.9000    -6.5050     2.9630 ca         1 KN1      -0.182000
     20 CAP          3.9360    -7.3650     2.4510 ca         1 KN1       0.147100
     21 OAB          4.0010    -8.6950     2.7240 oh         1 KN1      -0.522100
     22 CAM          2.9080    -6.8700     1.6620 ca         1 KN1      -0.240000
     23 CAQ          2.8360    -5.5150     1.3870 ca         1 KN1       0.169100
     24 OAC          1.8270    -5.0280     0.6200 oh         1 KN1      -0.483100
     25 HAA1        -0.5420    -0.0000    -0.9380 ha         1 KN1       0.115500
     26 HAA2        -0.5420     0.0000     0.9380 ha         1 KN1       0.115500
     27 HAG          1.8520    -0.0000    -0.9380 ha         1 KN1       0.142000
     28 HAN1         1.3610    -0.0970     2.1270 h1         1 KN1       0.078700
     29 HAN2         2.6110     0.9290     1.4080 h1         1 KN1       0.078700
     30 HAJ          7.1270     0.5230    -0.0140 ha         1 KN1       0.150000
     31 HAH          8.0500    -1.7430     0.2620 ha         1 KN1       0.140000
     32 HAL          6.6200    -3.5830     1.0050 ha         1 KN1       0.139000
     33 HAK          5.5930    -4.4870     3.0900 ha         1 KN1       0.145000
     34 HAI          5.7010    -6.8970     3.5780 ha         1 KN1       0.146000
     35 HOAB         3.4400    -8.8930     3.4550 ho         1 KN1       0.425000
     36 HAM          2.1570    -7.5430     1.2670 ha         1 KN1       0.146000
     37 HOAC         1.6260    -5.6450    -0.0640 ho         1 KN1       0.423000
@<TRIPOS>BOND
     1    19    18 ar
     2    19    20 ar
     3    21    20 1
     4    18    17 ar
     5    20    22 ar
     6    14    13 ar
     7    14    15 ar
     8    13    12 ar
     9    17    16 1
    10    17    23 ar
    11    22    23 ar
    12    15    16 1
    13    15     6 ar
    14    12     7 ar
    15    16     5 2
    16    23    24 1
    17     6     7 ar
    18     6     4 1
    19     7     8 1
    20     5     4 1
    21     4     3 1
    22    10     8 1
    23     8    11 1
    24     8     9 1
    25     2     3 1
    26     2     1 2
    27     1    25 1
    28     1    26 1
    29     2    27 1
    30     3    28 1
    31     3    29 1
    32    12    30 1
    33    13    31 1
    34    14    32 1
    35    18    33 1
    36    19    34 1
    37    21    35 1
    38    22    36 1
    39    24    37 1
@<TRIPOS>SUBSTRUCTURE
     1 KN1         1 TEMP              0 ****  ****    0 ROOT
