@<TRIPOS>MOLECULE
KN1
   37    39     1     0     0
SMALL
bcc


@<TRIPOS>ATOM
      1 CAA         0.1090   -0.5140   -0.2550 c2        1 KN1     -0.178000
      2 CAG         1.3520   -0.0870   -0.0550 c2        1 KN1     -0.206200
      3 CAN         1.9840   -0.0210    1.3000 c3        1 KN1      0.079500
      4 NAW         3.0200   -1.0200    1.5380 na        1 KN1      0.103900
      5 NAO         2.6550   -2.2940    1.8260 nc        1 KN1     -0.475100
      6 CAV         4.3480   -0.9790    1.0520 ca        1 KN1      0.000800
      7 CAT         5.2260    0.0400    0.6430 ca        1 KN1     -0.184300
      8 CAX         4.8480    1.5110    0.5940 c3        1 KN1      0.693200
      9 FAE         3.8610    1.8260   -0.3100 f         1 KN1     -0.238967
     10 FAF         4.3940    2.0300    1.7840 f         1 KN1     -0.238967
     11 FAD         5.8740    2.3590    0.2490 f         1 KN1     -0.238967
     12 CAJ         6.5260   -0.3170    0.2790 ca        1 KN1     -0.054000
     13 CAH         6.9810   -1.6390    0.3310 ca        1 KN1     -0.173000
     14 CAL         6.1440   -2.6610    0.7650 ca        1 KN1     -0.034000
     15 CAU         4.8430   -2.3420    1.1260 ca        1 KN1     -0.212900
     16 CAS         3.7060   -3.1150    1.6300 cd        1 KN1      0.421500
     17 CAR         3.7240   -4.5430    1.8990 ca        1 KN1     -0.164900
     18 CAK         4.7510   -5.0870    2.6790 ca        1 KN1     -0.042000
     19 CAI         4.8010   -6.4470    2.9640 ca        1 KN1     -0.253000
     20 CAP         3.7980   -7.2900    2.4600 ca        1 KN1      0.174100
     21 OAB         3.7780   -8.6420    2.7000 oh        1 KN1     -0.493100
     22 CAM         2.7580   -6.7840    1.6710 ca        1 KN1     -0.255000
     23 CAQ         2.7280   -5.4090    1.3950 ca        1 KN1      0.191100
     24 OAC         1.7460   -4.8610    0.6100 oh        1 KN1     -0.475100
     25 HAA1       -0.5350   -0.8810    0.5570 ha        1 KN1      0.116500
     26 HAA2       -0.3500   -0.5240   -1.2520 ha        1 KN1      0.116500
     27 HAG         1.9880    0.2690   -0.8830 ha        1 KN1      0.136000
     28 HAN1        1.1990   -0.1520    2.1030 h1        1 KN1      0.078700
     29 HAN2        2.4590    0.9920    1.4410 h1        1 KN1      0.078700
     30 HAJ         7.2220    0.4710   -0.0580 ha        1 KN1      0.152000
     31 HAH         8.0140   -1.8630    0.0280 ha        1 KN1      0.143000
     32 HAL         6.4970   -3.7020    0.8250 ha        1 KN1      0.147000
     33 HAK         5.5310   -4.4180    3.0760 ha        1 KN1      0.143000
     34 HAI         5.6110   -6.8560    3.5820 ha        1 KN1      0.139000
     35 HOAB        4.5370   -8.8580    3.2630 ho        1 KN1      0.424000
     36 HAM         1.9840   -7.4600    1.2830 ha        1 KN1      0.155000
     37 HOAC        1.1240   -5.5660    0.3720 ho        1 KN1      0.423000
@<TRIPOS>BOND
     1    1    2 2   
     2    1   25 1   
     3    1   26 1   
     4    2    3 1   
     5    2   27 1   
     6    3    4 1   
     7    3   28 1   
     8    3   29 1   
     9    4    5 1   
    10    4    6 1   
    11    5   16 2   
    12    6    7 ar  
    13    6   15 ar  
    14    7    8 1   
    15    7   12 ar  
    16    8    9 1   
    17    8   10 1   
    18    8   11 1   
    19   12   13 ar  
    20   12   30 1   
    21   13   14 ar  
    22   13   31 1   
    23   14   15 ar  
    24   14   32 1   
    25   15   16 1   
    26   16   17 1   
    27   17   18 ar  
    28   17   23 ar  
    29   18   19 ar  
    30   18   33 1   
    31   19   20 ar  
    32   19   34 1   
    33   20   21 1   
    34   20   22 ar  
    35   21   35 1   
    36   22   23 ar  
    37   22   36 1   
    38   23   24 1   
    39   24   37 1   
@<TRIPOS>SUBSTRUCTURE
     1 KN1         1 TEMP              0 ****  ****    0 ROOT
