@<TRIPOS>MOLECULE
molecule
   28    30     1     0     0
SMALL
bcc


@<TRIPOS>ATOM
      1 OAC          0.0000     0.0000     0.0000 oh         1 KN2      -0.494100
      2 CAN          1.3580     0.0000     0.0000 ca         1 KN2       0.161100
      3 CAH          2.0510     0.0000     1.1980 ca         1 KN2      -0.226000
      4 CAL          3.4390    -0.0000     1.1970 ca         1 KN2       0.140100
      5 OAA          4.1180    -0.0000     2.3740 oh         1 KN2      -0.521100
      6 CAD          4.1370    -0.0010    -0.0050 ca         1 KN2      -0.179000
      7 CAE          3.4540    -0.0020    -1.2030 ca         1 KN2      -0.074000
      8 CAO          2.0600    -0.0070    -1.2100 ca         1 KN2      -0.122900
      9 CAP          1.3240    -0.0140    -2.4960 cc         1 KN2       0.433500
     10 CAR          1.5940    -0.8860    -3.6450 ca         1 KN2      -0.245900
     11 CAG          2.5280    -1.8940    -3.8960 ca         1 KN2      -0.043000
     12 CAF          2.5250    -2.5400    -5.0980 ca         1 KN2      -0.193000
     13 CAM          1.5950    -2.2020    -6.0800 ca         1 KN2       0.148100
     14 OAB          1.6070    -2.8560    -7.2720 oh         1 KN2      -0.522100
     15 CAI          0.6630    -1.2090    -5.8540 ca         1 KN2      -0.189000
     16 CAQ          0.6530    -0.5400    -4.6320 ca         1 KN2      -0.007200
     17 N1K         -0.1220     0.4650    -4.1110 na         1 KN2      -0.051100
     18 N1J          0.3100     0.7530    -2.8130 nd         1 KN2      -0.480100
     19 HOAC        -0.3140     0.6650     0.5890 ho         1 KN2       0.425000
     20 HAH          1.5110    -0.0270     2.1370 ha         1 KN2       0.149000
     21 HOAA         4.2670     0.8890     2.6510 ho         1 KN2       0.423000
     22 HAD          5.2200     0.0000    -0.0000 ha         1 KN2       0.145000
     23 HAE          4.0010    -0.0050    -2.1380 ha         1 KN2       0.147000
     24 HAG          3.2540    -2.1620    -3.1380 ha         1 KN2       0.138000
     25 HAF          3.2510    -3.3200    -5.2910 ha         1 KN2       0.143000
     26 HOAB         1.0420    -3.6090    -7.2230 ho         1 KN2       0.422000
     27 HAI         -0.0570    -0.9520    -6.6220 ha         1 KN2       0.141000
     28 HN1K        -0.8810     0.9150    -4.5830 hn         1 KN2       0.333700
@<TRIPOS>BOND
     1     1     2 1
     2     1    19 1
     3     2     3 ar
     4     2     8 ar
     5     3     4 ar
     6     3    20 1
     7     4     5 1
     8     4     6 ar
     9     5    21 1
    10     6     7 ar
    11     6    22 1
    12     7     8 ar
    13     7    23 1
    14     8     9 1
    15     9    18 2
    16     9    10 1
    17    10    11 ar
    18    10    16 ar
    19    11    12 ar
    20    11    24 1
    21    12    13 ar
    22    12    25 1
    23    13    15 ar
    24    13    14 1
    25    14    26 1
    26    15    16 ar
    27    15    27 1
    28    16    17 1
    29    17    18 1
    30    17    28 1
@<TRIPOS>SUBSTRUCTURE
     1 KN2         1 TEMP              0 ****  ****    0 ROOT
