@<TRIPOS>MOLECULE
KN2
   28    30     1     0     0
SMALL
bcc


@<TRIPOS>ATOM
      1 OAC         0.0020   -0.0770   -0.0700 oh        1 KN2     -0.475100
      2 CAN         1.3720   -0.0100   -0.0300 ca        1 KN2      0.193100
      3 CAH         2.0640    0.0220    1.1910 ca        1 KN2     -0.310000
      4 CAL         3.4620    0.0620    1.1750 ca        1 KN2      0.171100
      5 OAA         4.2110    0.0970    2.3260 oh        1 KN2     -0.492100
      6 CAD         4.1740    0.0640   -0.0370 ca        1 KN2     -0.196000
      7 CAE         3.4680    0.0340   -1.2320 ca        1 KN2     -0.049000
      8 CAO         2.0660    0.0010   -1.2580 ca        1 KN2     -0.159900
      9 CAP         1.3770   -0.0240   -2.5350 cc        1 KN2      0.423500
     10 CAR         1.7100   -0.9110   -3.6540 ca        1 KN2     -0.234900
     11 CAG         2.6430   -1.9180   -3.8930 ca        1 KN2     -0.033000
     12 CAF         2.6430   -2.5560   -5.1220 ca        1 KN2     -0.183000
     13 CAM         1.7080   -2.1850   -6.1220 ca        1 KN2      0.158100
     14 OAB         1.7990   -2.8880   -7.3010 oh        1 KN2     -0.496100
     15 CAI         0.7560   -1.1820   -5.9300 ca        1 KN2     -0.238000
     16 CAQ         0.7630   -0.5470   -4.6820 ca        1 KN2     -0.019200
     17 N1K         0.0100    0.5180   -4.1600 na        1 KN2     -0.017100
     18 N1J         0.3410    0.7780   -2.8840 nd        1 KN2     -0.495100
     19 HOAC       -0.3280   -0.0320    0.8400 ho        1 KN2      0.419000
     20 HAH         1.5130    0.0170    2.1410 ha        1 KN2      0.137000
     21 HOAA        3.6040    0.0980    3.0810 ho        1 KN2      0.421000
     22 HAD         5.2710    0.0940   -0.0220 ha        1 KN2      0.155000
     23 HAE         4.0160    0.0400   -2.1880 ha        1 KN2      0.146000
     24 HAG         3.3670   -2.1980   -3.1140 ha        1 KN2      0.144000
     25 HAF         3.3620   -3.3560   -5.3480 ha        1 KN2      0.153000
     26 HOAB        1.1280   -2.5450   -7.9090 ho        1 KN2      0.420000
     27 HAI         0.0430   -0.9070   -6.7160 ha        1 KN2      0.141000
     28 HN1K       -0.8800    0.8080   -4.4930 hn        1 KN2      0.316700
@<TRIPOS>BOND
     1    1    2 1   
     2    1   19 1   
     3    2    3 ar  
     4    2    8 ar  
     5    3    4 ar  
     6    3   20 1   
     7    4    5 1   
     8    4    6 ar  
     9    5   21 1   
    10    6    7 ar  
    11    6   22 1   
    12    7    8 ar  
    13    7   23 1   
    14    8    9 1   
    15    9   10 1   
    16    9   18 2   
    17   10   11 ar  
    18   10   16 ar  
    19   11   12 ar  
    20   11   24 1   
    21   12   13 ar  
    22   12   25 1   
    23   13   14 1   
    24   13   15 ar  
    25   14   26 1   
    26   15   16 ar  
    27   15   27 1   
    28   16   17 1   
    29   17   18 1   
    30   17   28 1   
@<TRIPOS>SUBSTRUCTURE
     1 KN2         1 TEMP              0 ****  ****    0 ROOT
