@<TRIPOS>MOLECULE
KN3
   43    45     1     0     0
SMALL
bcc


@<TRIPOS>ATOM
      1 CAA         0.0470    0.1350   -0.0230 ca        1 KN3     -0.055000
      2 CAB         1.4310    0.3270    0.0520 ca        1 KN3     -0.173000
      3 CAC         2.0910    0.2650    1.2740 ca        1 KN3     -0.034000
      4 CAD         1.3430    0.0320    2.4190 ca        1 KN3     -0.212900
      5 CAE        -0.0980   -0.1370    2.3610 ca        1 KN3      0.000800
      6 CAF        -0.7340   -0.1100    1.1080 ca        1 KN3     -0.183300
      7 CAG         1.6700   -0.1130    3.8390 cc        1 KN3      0.420500
      8 NAH         0.5390   -0.3350    4.5400 nd        1 KN3     -0.479100
      9 NAI        -0.5130   -0.4000    3.6880 na        1 KN3      0.106900
     10 CAJ         3.0110   -0.0540    4.3950 ca        1 KN3     -0.162900
     11 CAK        -1.8670   -0.2320    4.2140 c3        1 KN3      0.086500
     12 CAL        -2.2630    1.1810    4.4850 c2        1 KN3     -0.231200
     13 CAM        -2.2890    1.7440    5.7020 c2        1 KN3     -0.062400
     14 CAN        -2.7410    3.1460    5.8880 c3        1 KN3     -0.072400
     15 CAO        -1.8850    1.0330    6.9400 c3        1 KN3     -0.072400
     16 CAP         4.0330   -0.8140    3.8130 ca        1 KN3     -0.043000
     17 CAQ         5.3290   -0.7900    4.3150 ca        1 KN3     -0.253000
     18 CAR         5.6170    0.0130    5.4300 ca        1 KN3      0.173100
     19 CAS         4.6230    0.7900    6.0360 ca        1 KN3     -0.255000
     20 CAT         3.3230    0.7510    5.5130 ca        1 KN3      0.190100
     21 OAU         2.3150    1.5070    6.0560 oh        1 KN3     -0.475100
     22 OAV         6.8720    0.0870    5.9840 oh        1 KN3     -0.493100
     23 CAW        -2.2200   -0.3580    0.9090 c3        1 KN3      0.694200
     24 FAX        -2.6770   -1.5530    1.4130 f         1 KN3     -0.238967
     25 FAY        -3.0480    0.5850    1.4710 f         1 KN3     -0.238967
     26 FAZ        -2.6280   -0.3930   -0.4040 f         1 KN3     -0.238967
     27 HAA        -0.4410    0.1750   -1.0120 ha        1 KN3      0.152000
     28 HAB         1.9970    0.5220   -0.8710 ha        1 KN3      0.143000
     29 HAC         3.1820    0.3960    1.3410 ha        1 KN3      0.146000
     30 HAK        -2.5710   -0.6770    3.4540 h1        1 KN3      0.077200
     31 HAKA       -1.9380   -0.8490    5.1580 h1        1 KN3      0.077200
     32 HAL        -2.5650    1.7540    3.5910 ha        1 KN3      0.136000
     33 HAN        -1.9060    3.7590    6.3110 hc        1 KN3      0.048533
     34 HANA       -3.5980    3.1790    6.6070 hc        1 KN3      0.048533
     35 HANB       -3.0680    3.6080    4.9250 hc        1 KN3      0.048533
     36 HAO        -2.5860    0.1870    7.1510 hc        1 KN3      0.048533
     37 HAOA       -0.8520    0.6150    6.8330 hc        1 KN3      0.048533
     38 HAOB       -1.8960    1.7210    7.8210 hc        1 KN3      0.048533
     39 HAP         3.7970   -1.4460    2.9420 ha        1 KN3      0.144000
     40 HAQ         6.1170   -1.3960    3.8490 ha        1 KN3      0.139000
     41 HAS         4.8690    1.4140    6.9060 ha        1 KN3      0.155000
     42 HOAU        2.6760    1.9850    6.8180 ho        1 KN3      0.422000
     43 HOAV        7.4560   -0.5020    5.4840 ho        1 KN3      0.424000
@<TRIPOS>BOND
     1    1    2 ar  
     2    1    6 ar  
     3    1   27 1   
     4    2    3 ar  
     5    2   28 1   
     6    3    4 ar  
     7    3   29 1   
     8    4    5 ar  
     9    4    7 1   
    10    5    6 ar  
    11    5    9 1   
    12    6   23 1   
    13    7    8 2   
    14    7   10 1   
    15    8    9 1   
    16    9   11 1   
    17   10   16 ar  
    18   10   20 ar  
    19   11   12 1   
    20   11   30 1   
    21   11   31 1   
    22   12   13 2   
    23   12   32 1   
    24   13   14 1   
    25   13   15 1   
    26   14   33 1   
    27   14   34 1   
    28   14   35 1   
    29   15   36 1   
    30   15   37 1   
    31   15   38 1   
    32   16   17 ar  
    33   16   39 1   
    34   17   18 ar  
    35   17   40 1   
    36   18   19 ar  
    37   18   22 1   
    38   19   20 ar  
    39   19   41 1   
    40   20   21 1   
    41   21   42 1   
    42   22   43 1   
    43   23   24 1   
    44   23   25 1   
    45   23   26 1   
@<TRIPOS>SUBSTRUCTURE
     1 KN3         1 TEMP              0 ****  ****    0 ROOT
