@<TRIPOS>MOLECULE
molecule
   43    45     1     0     0
SMALL
bcc


@<TRIPOS>ATOM
      1 CAA          0.0000     0.0000     0.0000 ca         1 KN3      -0.035000
      2 CAB          1.3880     0.0000     0.0000 ca         1 KN3      -0.186000
      3 CAC          2.0840     0.0000     1.1750 ca         1 KN3      -0.025000
      4 CAD          1.3910     0.0000     2.3880 ca         1 KN3      -0.244900
      5 CAE         -0.0150     0.0010     2.3870 ca         1 KN3       0.017800
      6 CAF         -0.7000     0.0060     1.1740 ca         1 KN3      -0.212300
      7 CAG          1.8020     0.0000     3.7960 cc         1 KN3       0.425500
      8 NAH          0.7130     0.0010     4.5260 nd         1 KN3      -0.460100
      9 NAI         -0.4150     0.0000     3.7000 na         1 KN3       0.077900
     10 CAJ          3.1950    -0.0010     4.3010 ca         1 KN3      -0.126900
     11 CAK         -1.8050     0.0010     4.1630 c3         1 KN3       0.092500
     12 CAL         -2.2200     1.4090     4.5060 c2         1 KN3      -0.214200
     13 CAM         -2.5780     1.7060     5.7300 c2         1 KN3      -0.097400
     14 CAN         -3.1630     3.0600     6.0370 c3         1 KN3      -0.059400
     15 CAO         -2.4040     0.6930     6.8330 c3         1 KN3      -0.059400
     16 CAP          4.1230    -0.9070     3.7920 ca         1 KN3      -0.070000
     17 CAQ          5.4190    -0.9060     4.2640 ca         1 KN3      -0.182000
     18 CAR          5.8020    -0.0030     5.2470 ca         1 KN3       0.146100
     19 CAS          4.8850     0.9020     5.7600 ca         1 KN3      -0.239000
     20 CAT          3.5850     0.9130     5.2880 ca         1 KN3       0.167100
     21 OAU          2.6850     1.7980     5.7890 oh         1 KN3      -0.484100
     22 OAV          7.0810    -0.0060     5.7080 oh         1 KN3      -0.522100
     23 CAW         -2.2060     0.0070     1.1550 c3         1 KN3       0.673200
     24 FAX         -2.6800    -1.1820     1.7200 f          1 KN3      -0.223300
     25 FAY         -2.6810     1.0950     1.8940 f          1 KN3      -0.223300
     26 FAZ         -2.6560     0.1070    -0.1660 f          1 KN3      -0.223300
     27 HAA         -0.5350    -0.0000    -0.9420 ha         1 KN3       0.150000
     28 HAB          1.9250    -0.0050    -0.9410 ha         1 KN3       0.139000
     29 HAC          3.1670     0.0000     1.1670 ha         1 KN3       0.138000
     30 HAK         -2.4470    -0.3830     3.3790 h1         1 KN3       0.079200
     31 HAKA        -1.8930    -0.6260     5.0420 h1         1 KN3       0.079200
     32 HAL         -2.3460     2.1390     3.7160 ha         1 KN3       0.142000
     33 HAN         -3.3800     3.5780     5.1110 hc         1 KN3       0.045367
     34 HANA        -4.0780     2.9370     6.6050 hc         1 KN3       0.045367
     35 HANB        -2.4530     3.6380     6.6170 hc         1 KN3       0.045367
     36 HAO         -3.0360    -0.1650     6.6370 hc         1 KN3       0.045367
     37 HAOA        -2.6830     1.1380     7.7800 hc         1 KN3       0.045367
     38 HAOB        -1.3690     0.3770     6.8730 hc         1 KN3       0.045367
     39 HAP          3.8260    -1.6120     3.0250 ha         1 KN3       0.145000
     40 HAQ          6.1400    -1.6110     3.8670 ha         1 KN3       0.146000
     41 HAS          5.1880     1.6070     6.5250 ha         1 KN3       0.146000
     42 HOAU         3.1130     2.6220     5.9550 ho         1 KN3       0.423000
     43 HOAV         7.1340    -0.5380     6.4860 ho         1 KN3       0.425000
@<TRIPOS>BOND
     1     6     1 ar
     2     2     1 ar
     3     1    27 1
     4     3     2 ar
     5     2    28 1
     6     4     3 ar
     7     3    29 1
     8     7     4 1
     9     4     5 ar
    10     9     5 1
    11     5     6 ar
    12     6    23 1
    13    10     7 1
    14     8     7 2
    15     8     9 1
    16     9    11 1
    17    16    10 ar
    18    20    10 ar
    19    12    11 1
    20    11    30 1
    21    11    31 1
    22    12    13 2
    23    12    32 1
    24    14    13 1
    25    13    15 1
    26    14    33 1
    27    14    34 1
    28    14    35 1
    29    15    36 1
    30    15    37 1
    31    15    38 1
    32    17    16 ar
    33    16    39 1
    34    18    17 ar
    35    17    40 1
    36    22    18 1
    37    18    19 ar
    38    19    20 ar
    39    19    41 1
    40    20    21 1
    41    21    42 1
    42    22    43 1
    43    25    23 1
    44    23    26 1
    45    23    24 1
@<TRIPOS>SUBSTRUCTURE
     1 KN3         1 TEMP              0 ****  ****    0 ROOT
