@<TRIPOS>MOLECULE
molecule
   28    27     1     0     0
SMALL
bcc


@<TRIPOS>ATOM
      1 C1           0.0000     0.0000     0.0000 c          1 KNA       0.891600
      2 O1           1.3420     0.0000     0.0000 o          1 KNA      -0.858300
      3 C2          -0.7540     0.0000     1.3050 c3         1 KNA      -0.183400
      4 O2          -0.6040     0.0050    -1.0460 o          1 KNA      -0.858300
      5 C3          -2.2580     0.0000     1.0250 c3         1 KNA      -0.063400
      6 C4          -3.0230     0.0010     2.3500 c3         1 KNA      -0.088400
      7 C5          -4.5280     0.0010     2.0700 c3         1 KNA      -0.081400
      8 C6          -5.2930     0.0020     3.3950 c3         1 KNA      -0.083400
      9 C7          -6.7960     0.0010     3.1150 c3         1 KNA      -0.082400
     10 C8          -7.5630     0.0020     4.4400 c3         1 KNA      -0.085400
     11 C9          -9.0660     0.0020     4.1600 c3         1 KNA      -0.092100
     12 H2          -0.4920    -0.8850     1.8730 hc         1 KNA       0.026700
     13 H2A         -0.4920     0.8840     1.8730 hc         1 KNA       0.026700
     14 H3          -2.5200     0.8850     0.4570 hc         1 KNA       0.044700
     15 H3A         -2.5200    -0.8840     0.4580 hc         1 KNA       0.044700
     16 H4          -2.7610    -0.8830     2.9190 hc         1 KNA       0.028700
     17 H4A         -2.7620     0.8860     2.9170 hc         1 KNA       0.028700
     18 H5          -4.7890    -0.8840     1.5030 hc         1 KNA       0.038700
     19 H5A         -4.7900     0.8850     1.5020 hc         1 KNA       0.038700
     20 H6          -5.0310    -0.8820     3.9640 hc         1 KNA       0.035700
     21 H6A         -5.0310     0.8870     3.9630 hc         1 KNA       0.035700
     22 H7          -7.0580     0.8850     2.5460 hc         1 KNA       0.038700
     23 H7A         -7.0580    -0.8840     2.5480 hc         1 KNA       0.038700
     24 H8          -7.3010    -0.8820     5.0090 hc         1 KNA       0.036700
     25 H8A         -7.3010     0.8870     5.0070 hc         1 KNA       0.036700
     26 H9          -9.3280    -0.8830     3.5920 hc         1 KNA       0.028033
     27 H9A         -9.3280     0.8860     3.5910 hc         1 KNA       0.028033
     28 H9B         -9.6080     0.0020     5.0980 hc         1 KNA       0.028033
@<TRIPOS>BOND
     1     4     1 1
     2     1     3 1
     3     1     2 1
     4     5     3 1
     5     3    12 1
     6     3    13 1
     7     5     6 1
     8     5    14 1
     9     5    15 1
    10     7     6 1
    11     6    16 1
    12     6    17 1
    13     7     8 1
    14     7    18 1
    15     7    19 1
    16     8     9 1
    17     8    20 1
    18     8    21 1
    19     9    10 1
    20     9    22 1
    21     9    23 1
    22    10    11 1
    23    10    24 1
    24    10    25 1
    25    11    26 1
    26    11    27 1
    27    11    28 1
@<TRIPOS>SUBSTRUCTURE
     1 KNA         1 TEMP              0 ****  ****    0 ROOT
