@<TRIPOS>MOLECULE
KNA
   28    27     1     0     0
SMALL
bcc


@<TRIPOS>ATOM
      1 C1          0.0470    0.0010   -0.0290 c         1 KNA      0.907600
      2 O1          1.3090    0.0020    0.0700 o         1 KNA     -0.854800
      3 C2         -0.7580    0.0010    1.2820 c3        1 KNA     -0.193400
      4 O2         -0.5690    0.0000   -1.1340 o         1 KNA     -0.854800
      5 C3         -2.2470    0.0010    1.0420 c3        1 KNA     -0.062400
      6 C4         -3.0280    0.0010    2.3390 c3        1 KNA     -0.079400
      7 C5         -4.5210    0.0010    2.0870 c3        1 KNA     -0.078400
      8 C6         -5.3030    0.0020    3.3830 c3        1 KNA     -0.078400
      9 C7         -6.7950    0.0010    3.1280 c3        1 KNA     -0.079400
     10 C8         -7.5790    0.0020    4.4240 c3        1 KNA     -0.080400
     11 C9         -9.0650    0.0020    4.1750 c3        1 KNA     -0.090100
     12 H2         -0.4610    0.9030    1.8730 hc        1 KNA      0.018700
     13 H2A        -0.4610   -0.9020    1.8730 hc        1 KNA      0.018700
     14 H3         -2.5190   -0.8980    0.4290 hc        1 KNA      0.044700
     15 H3A        -2.5190    0.8990    0.4280 hc        1 KNA      0.044700
     16 H4         -2.7500   -0.9000    2.9460 hc        1 KNA      0.024700
     17 H4A        -2.7510    0.9030    2.9450 hc        1 KNA      0.024700
     18 H5         -4.7970   -0.9020    1.4810 hc        1 KNA      0.036700
     19 H5A        -4.7980    0.9020    1.4800 hc        1 KNA      0.036700
     20 H6         -5.0250   -0.9000    3.9900 hc        1 KNA      0.033700
     21 H6A        -5.0260    0.9040    3.9890 hc        1 KNA      0.033700
     22 H7         -7.0720   -0.9020    2.5230 hc        1 KNA      0.037700
     23 H7A        -7.0730    0.9030    2.5220 hc        1 KNA      0.037700
     24 H8         -7.2980    0.9050    5.0290 hc        1 KNA      0.035700
     25 H8A        -7.2980   -0.9000    5.0300 hc        1 KNA      0.035700
     26 H9         -9.3660   -0.9030    3.5940 hc        1 KNA      0.027367
     27 H9A        -9.6230    0.0020    5.1420 hc        1 KNA      0.027367
     28 H9B        -9.3670    0.9060    3.5930 hc        1 KNA      0.027367
@<TRIPOS>BOND
     1    1    2 1   
     2    1    3 1   
     3    1    4 1   
     4    3    5 1   
     5    3   12 1   
     6    3   13 1   
     7    5    6 1   
     8    5   14 1   
     9    5   15 1   
    10    6    7 1   
    11    6   16 1   
    12    6   17 1   
    13    7    8 1   
    14    7   18 1   
    15    7   19 1   
    16    8    9 1   
    17    8   20 1   
    18    8   21 1   
    19    9   10 1   
    20    9   22 1   
    21    9   23 1   
    22   10   11 1   
    23   10   24 1   
    24   10   25 1   
    25   11   26 1   
    26   11   27 1   
    27   11   28 1   
@<TRIPOS>SUBSTRUCTURE
     1 KNA         1 TEMP              0 ****  ****    0 ROOT
