@<TRIPOS>MOLECULE
molecule
   18    18     1     0     0
SMALL
bcc


@<TRIPOS>ATOM
      1 Cl1          0.0000     0.0000     0.0000 cl         1 KNL      -0.086900
      2 O1          -1.2200     2.1450    -4.7990 o          1 KNL      -0.827300
      3 O2           0.9590     0.0030    -2.7960 os         1 KNL      -0.308900
      4 Cl2          3.6660     0.0050    -3.9810 cl         1 KNL      -0.086900
      5 O3          -0.9570    -0.0370    -4.5600 o          1 KNL      -0.827300
      6 C1          -0.6180     1.0790    -4.2470 c          1 KNL       0.898600
      7 C2           0.4810     1.2760    -3.2340 c3         1 KNL       0.033400
      8 C3           3.9940     0.0000     0.0000 ca         1 KNL      -0.150000
      9 C4           2.6760     0.0000     0.4140 ca         1 KNL      -0.122500
     10 C5           1.6560     0.0020    -0.5210 ca         1 KNL       0.002400
     11 C6           1.9590     0.0030    -1.8750 ca         1 KNL       0.161100
     12 C7           3.2830     0.0030    -2.2870 ca         1 KNL       0.002400
     13 C8           4.2990     0.0020    -1.3480 ca         1 KNL      -0.122500
     14 H2           0.0960     1.8290    -2.3860 h1         1 KNL       0.023700
     15 H3           1.2940     1.8310    -3.6870 h1         1 KNL       0.023700
     16 H4           4.7910    -0.0010     0.7340 ha         1 KNL       0.124000
     17 H5           2.4400    -0.0020     1.4720 ha         1 KNL       0.132000
     18 H6           5.3330     0.0020    -1.6700 ha         1 KNL       0.132000
@<TRIPOS>BOND
     1     1    10 1
     2     2     6 1
     3     3     7 1
     4     3    11 1
     5     4    12 1
     6     5     6 1
     7     6     7 1
     8     7    14 1
     9     7    15 1
    10     8     9 ar
    11     8    13 ar
    12     8    16 1
    13     9    10 ar
    14     9    17 1
    15    10    11 ar
    16    11    12 ar
    17    12    13 ar
    18    13    18 1
@<TRIPOS>SUBSTRUCTURE
     1 KNL         1 TEMP              0 ****  ****    0 ROOT
