@<TRIPOS>MOLECULE
KNN
   21    21     1     0     0
SMALL
bcc


@<TRIPOS>ATOM
      1 N1           0.0000     0.0000     0.0000 nz         1 KNN       0.065400
      2 C1           1.4690     0.0000     0.0000 c3         1 KNN       0.032100
      3 C2           1.9720     0.0000     1.4210 ca         1 KNN      -0.211300
      4 C3           2.0050    -1.1790     2.1430 ca         1 KNN      -0.068300
      5 C4           2.4670    -1.1780     3.4460 ca         1 KNN      -0.078000
      6 C5           2.8940     0.0010     4.0270 ca         1 KNN      -0.033000
      7 C6           2.8600     1.1790     3.3050 ca         1 KNN      -0.084000
      8 C7           2.4040     1.1780     2.0010 ca         1 KNN      -0.056000
      9 C8           1.5410    -2.4640     1.5080 c3         1 KNN       0.055200
     10 H1          -0.3340     0.8140    -0.4780 hn         1 KNN       0.225467
     11 H2           1.8300     0.8850    -0.5110 hx         1 KNN       0.084700
     12 H3           1.8300    -0.8840    -0.5110 hx         1 KNN       0.084700
     13 H4           2.4930    -2.1010     4.0120 ha         1 KNN       0.129000
     14 H5           3.2530     0.0010     5.0490 ha         1 KNN       0.125000
     15 H6           3.1970     2.1030     3.7600 ha         1 KNN       0.127000
     16 H7           2.3780     2.1020     1.4360 ha         1 KNN       0.111000
     17 H8           2.0240    -2.5880     0.5470 hc         1 KNN       0.013700
     18 H9           1.7970    -3.2970     2.1510 hc         1 KNN       0.013700
     19 H10          0.4670    -2.4310     1.3700 hc         1 KNN       0.013700
     20 H11         -0.3340    -0.8210    -0.4660 hn         1 KNN       0.225467
     21 H13         -0.3340     0.0070     0.9440 hn         1 KNN       0.225467
@<TRIPOS>BOND
     1     1     2 1   
     2     1    10 1   
     3     1    20 1   
     4     1    21 1   
     5     2     3 1   
     6     2    11 1   
     7     2    12 1   
     8     3     4 ar  
     9     3     8 ar  
    10     4     5 ar  
    11     4     9 1   
    12     5     6 ar  
    13     5    13 1   
    14     6     7 ar  
    15     6    14 1   
    16     7     8 ar  
    17     7    15 1   
    18     8    16 1   
    19     9    17 1   
    20     9    18 1   
    21     9    19 1   
@<TRIPOS>SUBSTRUCTURE
     1 KNN         1 TEMP              0 ****  ****    0 ROOT
