@<TRIPOS>MOLECULE
molecule
   21    21     1     0     0
SMALL
bcc


@<TRIPOS>ATOM
      1 N1           0.0000     0.0000     0.0000 nz         1 KNN      -0.812600
      2 C1           1.4690     0.0000     0.0000 c3         1 KNN       0.161100
      3 C2           1.9720     0.0000     1.4210 ca         1 KNN      -0.200300
      4 C3           2.0050    -1.1790     2.1430 ca         1 KNN      -0.061300
      5 C4           2.4670    -1.1780     3.4460 ca         1 KNN      -0.112000
      6 C5           2.8940     0.0010     4.0270 ca         1 KNN      -0.069000
      7 C6           2.8600     1.1790     3.3050 ca         1 KNN      -0.117000
      8 C7           2.4040     1.1780     2.0010 ca         1 KNN      -0.089000
      9 C8           1.5410    -2.4640     1.5080 c3         1 KNN      -0.061800
     10 H1          -0.3340     0.8140    -0.4780 hn         1 KNN       0.455133
     11 H2           1.8300     0.8850    -0.5110 hx         1 KNN       0.111200
     12 H3           1.8300    -0.8840    -0.5110 hx         1 KNN       0.111200
     13 H4           2.4930    -2.1010     4.0120 ha         1 KNN       0.159000
     14 H5           3.2530     0.0010     5.0490 ha         1 KNN       0.161000
     15 H6           3.1970     2.1030     3.7600 ha         1 KNN       0.161000
     16 H7           2.3780     2.1020     1.4360 ha         1 KNN       0.140000
     17 H8           2.0240    -2.5880     0.5470 hc         1 KNN       0.051700
     18 H9           1.7970    -3.2970     2.1510 hc         1 KNN       0.051700
     19 H10          0.4670    -2.4310     1.3700 hc         1 KNN       0.051700
     20 H11         -0.3340    -0.8210    -0.4660 hn         1 KNN       0.455133
     21 H13         -0.3340     0.0070     0.9440 hn         1 KNN       0.455133
@<TRIPOS>BOND
     1     1     2 1
     2     1    10 1
     3     2     3 1
     4     2    11 1
     5     2    12 1
     6     3     4 ar
     7     3     8 ar
     8     4     5 ar
     9     4     9 1
    10     5     6 ar
    11     5    13 1
    12     6     7 ar
    13     6    14 1
    14     7     8 ar
    15     7    15 1
    16     8    16 1
    17     9    17 1
    18     9    18 1
    19     9    19 1
    20     1    20 1
    21    21     1 1
@<TRIPOS>SUBSTRUCTURE
     1 KNN         1 TEMP              0 ****  ****    0 ROOT
