@<TRIPOS>MOLECULE
KNP
   18    18     1     0     0
SMALL
bcc


@<TRIPOS>ATOM
      1 F1         -0.0430   -0.1500    0.2840 f         1 KNP     -0.132900
      2 F2          2.9520    0.8770   -3.3520 f         1 KNP     -0.132900
      3 O1         -1.7460    2.1510   -4.0690 o         1 KNP     -0.816300
      4 O2          0.2080    0.5360   -2.2640 os        1 KNP     -0.267900
      5 O3         -1.7070   -0.0140   -4.6570 o         1 KNP     -0.816300
      6 C1         -1.2020    1.0200   -4.1490 c         1 KNP      0.928600
      7 C2          0.2720    0.9100   -3.6470 c3        1 KNP     -0.013600
      8 C3          3.6030   -0.0410    0.1140 ca        1 KNP     -0.156000
      9 C4          2.3130   -0.1990    0.6180 ca        1 KNP     -0.154000
     10 C5          1.2060    0.0050   -0.2130 ca        1 KNP      0.071400
     11 C6          1.3760    0.3750   -1.5830 ca        1 KNP      0.117100
     12 C7          2.6970    0.5280   -2.0660 ca        1 KNP      0.071400
     13 C8          3.7970    0.3180   -1.2110 ca        1 KNP     -0.154000
     14 H2          0.8190    0.1200   -4.2180 h1        1 KNP      0.030700
     15 H3          0.7880    1.8970   -3.7400 h1        1 KNP      0.030700
     16 H4          4.4680   -0.2020    0.7720 ha        1 KNP      0.124000
     17 H5          2.1510   -0.4820    1.6670 ha        1 KNP      0.134500
     18 H6          4.8110    0.4450   -1.6170 ha        1 KNP      0.134500
@<TRIPOS>BOND
     1    1   10 1   
     2    2   12 1   
     3    3    6 1   
     4    4    7 1   
     5    4   11 1   
     6    5    6 1   
     7    6    7 1   
     8    7   14 1   
     9    7   15 1   
    10    8    9 ar  
    11    8   13 ar  
    12    8   16 1   
    13    9   10 ar  
    14    9   17 1   
    15   10   11 ar  
    16   11   12 ar  
    17   12   13 ar  
    18   13   18 1   
@<TRIPOS>SUBSTRUCTURE
     1 KNP         1 TEMP              0 ****  ****    0 ROOT
