@<TRIPOS>MOLECULE
molecule
   18    18     1     0     0
SMALL
bcc


@<TRIPOS>ATOM
      1 F1           0.0000     0.0000     0.0000 f          1 KNP      -0.123900
      2 F2           3.1030    -0.0010    -3.5910 f          1 KNP      -0.123900
      3 O1          -1.7350     2.1390    -4.6360 o          1 KNP      -0.827300
      4 O2           0.5050    -0.0010    -2.6990 os         1 KNP      -0.304900
      5 O3          -1.4660    -0.0420    -4.4020 o          1 KNP      -0.827300
      6 C1          -1.1160     1.0750    -4.1010 c          1 KNP       0.897600
      7 C2           0.0140     1.2730    -3.1240 c3         1 KNP       0.031400
      8 C3           3.6300     0.0000     0.0000 ca         1 KNP      -0.115000
      9 C4           2.3250     0.0000     0.4550 ca         1 KNP      -0.186500
     10 C5           1.2750     0.0000    -0.4460 ca         1 KNP       0.127400
     11 C6           1.5340    -0.0010    -1.8100 ca         1 KNP       0.073100
     12 C7           2.8470    -0.0010    -2.2650 ca         1 KNP       0.127400
     13 C8           3.8910    -0.0010    -1.3580 ca         1 KNP      -0.186500
     14 H2          -0.3440     1.8270    -2.2650 h1         1 KNP       0.022700
     15 H3           0.8130     1.8260    -3.6040 h1         1 KNP       0.022700
     16 H4           4.4500    -0.0000     0.7080 ha         1 KNP       0.125000
     17 H5           2.1230     0.0010     1.5200 ha         1 KNP       0.134000
     18 H6           4.9150    -0.0010    -1.7120 ha         1 KNP       0.134000
@<TRIPOS>BOND
     1     1    10 1
     2     2    12 1
     3     3     6 1
     4     4     7 1
     5     4    11 1
     6     5     6 1
     7     6     7 1
     8     7    14 1
     9     7    15 1
    10     8     9 ar
    11     8    13 ar
    12     8    16 1
    13     9    10 ar
    14     9    17 1
    15    10    11 ar
    16    11    12 ar
    17    12    13 ar
    18    13    18 1
@<TRIPOS>SUBSTRUCTURE
     1 KNP         1 TEMP              0 ****  ****    0 ROOT
