@<TRIPOS>MOLECULE
molecule
   34    35     1     0     0
SMALL
bcc


@<TRIPOS>ATOM
      1 C13          0.0000     0.0000     0.0000 ca         1 KOB      -0.086500
      2 C12          1.3810     0.0000     0.0000 ca         1 KOB      -0.161500
      3 C11          2.0750     0.0000     1.1980 ca         1 KOB       0.142900
      4 F11          3.4260     0.0000     1.1960 f          1 KOB      -0.135900
      5 C10          1.3850     0.0000     2.3990 ca         1 KOB      -0.161500
      6 C9           0.0040    -0.0000     2.4040 ca         1 KOB      -0.086500
      7 C8          -0.6930    -0.0010     1.2040 ca         1 KOB       0.010600
      8 N8          -2.0930    -0.0010     1.2060 ns         1 KOB      -0.410100
      9 C7          -2.7690    -0.7640     0.3250 cs         1 KOB       0.595400
     10 S7          -1.9210    -1.8430    -0.6990 s          1 KOB      -0.619400
     11 N7          -4.1120    -0.6780     0.2490 ns         1 KOB      -0.348300
     12 N6          -4.8050     0.2050     1.0860 nu         1 KOB      -0.584600
     13 C6          -6.1970     0.2940     1.0080 ca         1 KOB       0.281600
     14 C5          -6.9040    -0.5590     0.1690 ca         1 KOB      -0.220000
     15 C4          -8.2790    -0.4680     0.0950 ca         1 KOB       0.016000
     16 C3          -8.9540     0.4700     0.8530 ca         1 KOB      -0.217200
     17 N3         -10.4290     0.5690     0.7660 no         1 KOB       0.302200
     18 O3B        -11.0240     1.3980     1.4310 o          1 KOB      -0.194000
     19 O3A        -11.0460    -0.1800     0.0310 o          1 KOB      -0.194000
     20 C2          -8.2540     1.3220     1.6890 ca         1 KOB       0.036000
     21 C1          -6.8780     1.2320     1.7730 ca         1 KOB      -0.240200
     22 N1          -6.1300     2.1430     2.6680 no         1 KOB       0.299200
     23 O1B         -5.1680     1.7320     3.2900 o          1 KOB      -0.196000
     24 O1A         -6.4770     3.3060     2.7820 o          1 KOB      -0.196000
     25 HE1          1.9290     0.0000     3.3360 ha         1 KOB       0.153500
     26 HE2          1.9220     0.0010    -0.9390 ha         1 KOB       0.153500
     27 HD2         -0.5420    -0.0000    -0.9380 ha         1 KOB       0.156000
     28 HD1         -0.5350    -0.0010     3.3440 ha         1 KOB       0.156000
     29 HAD         -2.5920     0.5550     1.8720 hn         1 KOB       0.323500
     30 HAC         -4.6110    -1.2290    -0.4200 hn         1 KOB       0.391500
     31 HAB         -4.3010     0.7930     1.7210 hn         1 KOB       0.497800
     32 H5          -6.3760    -1.2950    -0.4250 ha         1 KOB       0.160000
     33 H4          -8.8310    -1.1330    -0.5580 ha         1 KOB       0.181000
     34 H2          -8.7860     2.0550     2.2840 ha         1 KOB       0.196000
@<TRIPOS>BOND
     1    18    17 1
     2    19    17 1
     3    17    16 1
     4    16    20 ar
     5    16    15 ar
     6    20    21 ar
     7    15    14 ar
     8    24    22 1
     9    21    22 1
    10    21    13 ar
    11    14    13 ar
    12    22    23 1
    13    13    12 1
    14     1     2 ar
    15     1     7 ar
    16    12    11 1
    17     2     3 ar
    18     8     7 1
    19     8     9 1
    20     7     6 ar
    21    11     9 1
    22     3     4 1
    23     3     5 ar
    24     9    10 2
    25     6     5 ar
    26     2    26 1
    27     5    25 1
    28     1    27 1
    29     6    28 1
    30     8    29 1
    31    11    30 1
    32    12    31 1
    33    14    32 1
    34    15    33 1
    35    20    34 1
@<TRIPOS>SUBSTRUCTURE
     1 KOB         1 TEMP              0 ****  ****    0 ROOT
