@<TRIPOS>MOLECULE
KOB
   34    35     1     0     0
SMALL
bcc


@<TRIPOS>ATOM
      1 C13          0.0000     0.0000     0.0000 ca         1 KOB      -0.051500
      2 C12          1.3810     0.0000     0.0000 ca         1 KOB      -0.127500
      3 C11          2.0750     0.0000     1.1980 ca         1 KOB       0.124900
      4 F11          3.4260     0.0000     1.1960 f          1 KOB      -0.124900
      5 C10          1.3850     0.0000     2.3990 ca         1 KOB      -0.127500
      6 C9           0.0040    -0.0000     2.4040 ca         1 KOB      -0.051500
      7 C8          -0.6930    -0.0010     1.2040 ca         1 KOB      -0.160400
      8 N8          -2.0930    -0.0010     1.2060 ns         1 KOB       0.104900
      9 C7          -2.7690    -0.7640     0.3250 cs         1 KOB       0.262400
     10 S7          -1.9210    -1.8430    -0.6990 s          1 KOB      -0.657400
     11 N7          -4.1120    -0.6780     0.2490 ns         1 KOB      -0.039300
     12 N6          -4.8050     0.2050     1.0860 nu         1 KOB      -0.316600
     13 C6          -6.1970     0.2940     1.0080 ca         1 KOB       0.178600
     14 C5          -6.9040    -0.5590     0.1690 ca         1 KOB      -0.220000
     15 C4          -8.2790    -0.4680     0.0950 ca         1 KOB       0.096000
     16 C3          -8.9540     0.4700     0.8530 ca         1 KOB      -0.519200
     17 N3         -10.4290     0.5690     0.7660 no         1 KOB       1.055200
     18 O3B        -11.0240     1.3980     1.4310 o          1 KOB      -0.442500
     19 O3A        -11.0460    -0.1800     0.0310 o          1 KOB      -0.442500
     20 C2          -8.2540     1.3220     1.6890 ca         1 KOB       0.133000
     21 C1          -6.8780     1.2320     1.7730 ca         1 KOB      -0.538200
     22 N1          -6.1300     2.1430     2.6680 no         1 KOB       1.057200
     23 O1B         -5.1680     1.7320     3.2900 o          1 KOB      -0.442000
     24 O1A         -6.4770     3.3060     2.7820 o          1 KOB      -0.442000
     25 HE1          1.9290     0.0000     3.3360 ha         1 KOB       0.125000
     26 HE2          1.9220     0.0010    -0.9390 ha         1 KOB       0.125000
     27 HD2         -0.5420    -0.0000    -0.9380 ha         1 KOB       0.132000
     28 HD1         -0.5350    -0.0010     3.3440 ha         1 KOB       0.132000
     29 HAD         -2.5920     0.5550     1.8720 hn         1 KOB       0.157500
     30 HAC         -4.6110    -1.2290    -0.4200 hn         1 KOB       0.240500
     31 HAB         -4.3010     0.7930     1.7210 hn         1 KOB       0.354800
     32 H5          -6.3760    -1.2950    -0.4250 ha         1 KOB       0.135000
     33 H4          -8.8310    -1.1330    -0.5580 ha         1 KOB       0.138000
     34 H2          -8.7860     2.0550     2.2840 ha         1 KOB       0.151000
@<TRIPOS>BOND
     1     1     2 ar  
     2     1     7 ar  
     3     1    27 1   
     4     2     3 ar  
     5     2    26 1   
     6     3     4 1   
     7     3     5 ar  
     8     5     6 ar  
     9     5    25 1   
    10     6     7 ar  
    11     6    28 1   
    12     7     8 1   
    13     8     9 1   
    14     8    29 1   
    15     9    10 2   
    16     9    11 1   
    17    11    12 1   
    18    11    30 1   
    19    12    13 1   
    20    12    31 1   
    21    13    14 ar  
    22    13    21 ar  
    23    14    15 ar  
    24    14    32 1   
    25    15    16 ar  
    26    15    33 1   
    27    16    17 1   
    28    16    20 ar  
    29    17    18 1   
    30    17    19 1   
    31    20    21 ar  
    32    20    34 1   
    33    21    22 1   
    34    22    23 1   
    35    22    24 1   
@<TRIPOS>SUBSTRUCTURE
     1 KOB         1 TEMP              0 ****  ****    0 ROOT
