@<TRIPOS>MOLECULE
molecule
   28    29     1     0     0
SMALL
bcc


@<TRIPOS>ATOM
      1 N1           0.0000     0.0000     0.0000 na         1 KOH      -0.296900
      2 C2           1.3690     0.0000     0.0000 cc         1 KOH      -0.291600
      3 C3           1.7640     0.0000     1.2890 cc         1 KOH       0.313200
      4 N4           0.6730     0.0010     2.0650 nc         1 KOH      -0.698000
      5 C5          -0.3990     0.0070     1.3040 cd         1 KOH       0.485000
      6 C6          -1.7980     0.0100     1.7820 ca         1 KOH      -0.179500
      7 C7          -2.0710     0.0050     3.1510 ca         1 KOH      -0.045000
      8 C8          -3.3770     0.0080     3.5930 ca         1 KOH      -0.219000
      9 C9          -2.8500     0.0230     0.8640 ca         1 KOH      -0.092000
     10 C10         -4.1550     0.0310     1.3140 ca         1 KOH      -0.021600
     11 Cl1         -5.4650     0.0400     0.1750 cl         1 KOH      -0.106400
     12 C12         -4.4210     0.0160     2.6780 ca         1 KOH       0.187100
     13 O13         -5.7070     0.0240     3.1180 os         1 KOH      -0.322900
     14 C14         -5.9090     0.0070     4.5320 c3         1 KOH       0.136400
     15 C15         -7.4090     0.0190     4.8330 c3         1 KOH      -0.181400
     16 C16         -7.6220     0.0020     6.3250 c          1 KOH       0.895600
     17 O17         -8.8680     0.0080     6.8250 o          1 KOH      -0.846800
     18 O18         -6.6720    -0.0190     7.0710 o          1 KOH      -0.846800
     19 H1          -0.5950     0.0010    -0.8050 hn         1 KOH       0.297700
     20 H2           2.0140    -0.0030    -0.8710 h4         1 KOH       0.165000
     21 H3           2.7890    -0.0020     1.6380 h4         1 KOH       0.033100
     22 H5          -1.2570    -0.0010     3.8660 ha         1 KOH       0.156000
     23 H6          -3.5880     0.0000     4.6550 ha         1 KOH       0.170000
     24 H7          -2.6430     0.0870    -0.1970 ha         1 KOH       0.123000
     25 H8          -5.4450     0.8810     4.9730 h1         1 KOH       0.046700
     26 H9          -5.4640    -0.8880     4.9490 h1         1 KOH       0.046700
     27 H10         -7.8730    -0.8540     4.3920 hc         1 KOH       0.044700
     28 H11         -7.8540     0.9140     4.4150 hc         1 KOH       0.044700
@<TRIPOS>BOND
     1    11    10 1
     2    13    14 1
     3    13    12 1
     4    14    15 1
     5    10    12 ar
     6    10     9 ar
     7    12     8 ar
     8     9     6 ar
     9    15    16 1
    10    18    16 1
    11     8     7 ar
    12    16    17 1
    13     6     7 ar
    14     6     5 1
    15     4     5 2
    16     4     3 1
    17     5     1 1
    18     3     2 2
    19     1     2 1
    20     1    19 1
    21     2    20 1
    22     3    21 1
    23     7    22 1
    24     8    23 1
    25     9    24 1
    26    14    25 1
    27    14    26 1
    28    15    27 1
    29    15    28 1
@<TRIPOS>SUBSTRUCTURE
     1 KOH         1 TEMP              0 ****  ****    0 ROOT
