@<TRIPOS>MOLECULE
KOJ
   16    16     1     0     0
SMALL
bcc


@<TRIPOS>ATOM
      1 C1         -0.1690    0.2010    0.1510 cc        1 KOJ      0.006100
      2 C2          1.1800    0.1700    0.0100 cd        1 KOJ     -0.062100
      3 C3          2.0780    0.0960    1.1790 c         1 KOJ      0.559500
      4 C4          1.3690    0.0680    2.4490 cc        1 KOJ     -0.311200
      5 C5          0.0170    0.0970    2.5000 cd        1 KOJ      0.088900
      6 C6         -0.8010    0.0400    3.7570 c3        1 KOJ      0.173600
      7 O2          1.7080    0.2130   -1.2580 oh        1 KOJ     -0.485100
      8 O3          3.3110    0.0630    1.0490 o         1 KOJ     -0.554100
      9 O5         -0.7890    0.1560    1.3830 os        1 KOJ     -0.218200
     10 O6         -1.9580    0.8410    3.6960 oh        1 KOJ     -0.577800
     11 H1         -0.9210    0.2600   -0.6490 h4        1 KOJ      0.198000
     12 H4          1.9750    0.0290    3.3660 ha        1 KOJ      0.173000
     13 H6C1       -0.2060    0.4530    4.6180 h1        1 KOJ      0.074200
     14 H6C2       -1.0720   -1.0340    3.9570 h1        1 KOJ      0.074200
     15 H2          2.6760    0.1890   -1.1610 ho        1 KOJ      0.447000
     16 H6         -2.4930    0.5340    2.9530 ho        1 KOJ      0.416000
@<TRIPOS>BOND
     1    1    2 2   
     2    1    9 1   
     3    1   11 1   
     4    2    3 1   
     5    2    7 1   
     6    3    4 1   
     7    3    8 2   
     8    4    5 2   
     9    4   12 1   
    10    5    6 1   
    11    5    9 1   
    12    6   10 1   
    13    6   13 1   
    14    6   14 1   
    15    7   15 1   
    16   10   16 1   
@<TRIPOS>SUBSTRUCTURE
     1 KOJ         1 TEMP              0 ****  ****    0 ROOT
