@<TRIPOS>MOLECULE
molecule
   26    28     1     0     0
SMALL
bcc


@<TRIPOS>ATOM
      1 OAB          0.0000     0.0000     0.0000 o          1 KOK      -0.597100
      2 CAA          1.2150     0.0000     0.0000 c          1 KOK       0.707900
      3 NAG          1.8890     0.0000     1.1680 n          1 KOK      -0.359000
      4 CAF          3.3440     0.1120     1.2980 c3         1 KOK       0.101000
      5 CAE          3.6180     0.0630     2.8090 c3         1 KOK      -0.046100
      6 CAD          2.2510    -0.0770     3.4400 ca         1 KOK      -0.131300
      7 CAC          1.3010    -0.1010     2.4320 ca         1 KOK       0.061600
      8 CAK         -0.0480    -0.2190     2.7740 ca         1 KOK      -0.135000
      9 CAJ         -0.4240    -0.3050     4.0980 ca         1 KOK      -0.107000
     10 CAI          0.5320    -0.2770     5.0970 ca         1 KOK      -0.145000
     11 CAH          1.8700    -0.1700     4.7650 ca         1 KOK      -0.092000
     12 H2           3.6720     1.0650     0.9000 h1         1 KOK       0.071700
     13 H3           4.2190    -0.8080     3.0420 hc         1 KOK       0.066200
     14 H4          -0.8020    -0.2410     1.9970 ha         1 KOK       0.165000
     15 H5          -1.4720    -0.3880     4.3560 ha         1 KOK       0.136000
     16 H6           0.2340    -0.3450     6.1360 ha         1 KOK       0.134000
     17 H7           2.6200    -0.1480     5.5460 ha         1 KOK       0.133000
     18 N1           1.8890    -0.0060    -1.1670 n          1 KOK       0.062300
     19 C2           1.3560    -0.1080    -2.4220 cc         1 KOK      -0.163600
     20 C1           2.3900    -0.0720    -3.2870 cd         1 KOK       0.247200
     21 N3           3.5280     0.0480    -2.6010 nd         1 KOK      -0.317000
     22 N2           3.2770     0.0980    -1.3380 nc         1 KOK      -0.189800
     23 H1           0.3060    -0.2000    -2.6730 h4         1 KOK       0.204000
     24 H8           2.3090    -0.1330    -4.3650 h4         1 KOK       0.057100
     25 H9           3.8180    -0.7340     0.8150 h1         1 KOK       0.071700
     26 H10          4.0740     0.9920     3.1270 hc         1 KOK       0.066200
@<TRIPOS>BOND
     1     4     5 1
     2     4     3 1
     3     5     6 1
     4     3     2 1
     5     3     7 1
     6     2     1 2
     7     6     7 ar
     8     6    11 ar
     9     7     8 ar
    10    11    10 ar
    11     8     9 ar
    12    10     9 ar
    13     4    12 1
    14     5    13 1
    15     8    14 1
    16     9    15 1
    17    10    16 1
    18    11    17 1
    19     2    18 1
    20    18    19 1
    21    19    20 2
    22    20    21 1
    23    21    22 2
    24    22    18 1
    25    19    23 1
    26    20    24 1
    27     4    25 1
    28     5    26 1
@<TRIPOS>SUBSTRUCTURE
     1 KOK         1 TEMP              0 ****  ****    0 ROOT
