@<TRIPOS>MOLECULE
KOL
   52    53     1     0     0
SMALL
bcc


@<TRIPOS>ATOM
      1 C1           0.0000     0.0000     0.0000 c          1 KOL       0.686900
      2 C2           0.7750     0.9280     3.2920 c2         1 KOL      -0.190600
      3 C3           1.5070     0.0000     0.0000 c3         1 KOL      -0.220700
      4 C4           2.0170     0.0000     1.4430 c3         1 KOL       0.144500
      5 C5           0.6270    -0.4100     3.2840 ce         1 KOL       0.068800
      6 O6          -0.6050     0.8210    -0.6460 o          1 KOL      -0.579100
      7 C7           2.0160    -1.2490    -0.7210 c3         1 KOL       0.201100
      8 O8           3.4450    -1.2500    -0.7220 oh         1 KOL      -0.588800
      9 C9           1.5070    -1.2500    -2.1640 c3         1 KOL      -0.039100
     10 N10          1.3220    -1.0270     2.2310 nu         1 KOL      -0.426000
     11 C11         -0.1470    -1.1190     4.2330 c          1 KOL       0.942800
     12 O12         -0.3330    -2.4490     4.0950 o          1 KOL      -0.856800
     13 O13         -0.6450    -0.5290     5.1740 o          1 KOL      -0.856800
     14 S14          0.0570     2.0320     4.4620 ss         1 KOL      -0.280700
     15 C15          1.5550     2.7200     5.2070 c3         1 KOL       0.022400
     16 C16          1.1980     3.7570     6.3030 c3         1 KOL       0.004600
     17 C17          2.4480     3.6930     7.2150 c3         1 KOL       0.039500
     18 C18          1.6630     1.3280     2.1360 c3         1 KOL       0.034500
     19 N19          2.8400     2.2670     7.2190 n7         1 KOL      -0.538200
     20 C20          0.9100     2.2540     1.1780 c3         1 KOL      -0.047100
     21 C21          2.3230     1.6350     5.9910 c3         1 KOL       0.131800
     22 C22          2.1040     4.1450     8.6110 c          1 KOL       0.587100
     23 N23          2.0220     5.4610     8.8910 n          1 KOL      -0.188800
     24 O24          1.9000     3.3260     9.4820 o          1 KOL      -0.605100
     25 C25          2.2680     6.4510     7.8400 c3         1 KOL       0.091800
     26 C26          1.6870     5.9010    10.2480 c3         1 KOL       0.091800
     27 H1          -0.5400    -0.7690     0.5390 h4         1 KOL      -0.008800
     28 H3           1.8680     0.8840    -0.5110 hc         1 KOL       0.073700
     29 H4           3.0870    -0.1650     1.4710 h1         1 KOL       0.032700
     30 H7           1.6550    -2.1340    -0.2110 h1         1 KOL       0.007700
     31 HO8          3.7590    -2.1160    -0.9200 ho         1 KOL       0.386000
     32 H9           1.7030    -0.2850    -2.6160 hc         1 KOL       0.009700
     33 H9A          0.4410    -1.4410    -2.1700 hc         1 KOL       0.009700
     34 H9B          2.0160    -2.0230    -2.7270 hc         1 KOL       0.009700
     35 HN10         1.3430    -2.0110     2.0470 hn         1 KOL       0.321800
     36 H15          2.1930     3.1680     4.4540 h1         1 KOL       0.028700
     37 H16          0.3090     3.4540     6.8440 hc         1 KOL       0.034200
     38 H16A         1.0820     4.7450     5.8760 hc         1 KOL       0.034200
     39 H17          3.2450     4.2990     6.8020 h1         1 KOL       0.008700
     40 H18          2.5620     1.8080     2.5040 hc         1 KOL       0.014700
     41 HN19         3.8380     2.1950     7.2360 hn         1 KOL       0.232800
     42 H20         -0.0960     1.8800     1.0320 hc         1 KOL       0.018033
     43 H20A         1.4260     2.2850     0.2260 hc         1 KOL       0.018033
     44 H20B         0.8680     3.2510     1.5980 hc         1 KOL       0.018033
     45 H21          3.1470     1.2640     5.3940 h1         1 KOL       0.044700
     46 H21A         1.6520     0.8250     6.2490 h1         1 KOL       0.044700
     47 H25          1.3980     6.5190     7.1980 h1         1 KOL       0.004867
     48 H25A         3.1270     6.1490     7.2530 h1         1 KOL       0.004867
     49 H25B         2.4610     7.4170     8.2910 h1         1 KOL       0.004867
     50 H26          1.5230     6.9720    10.2490 h1         1 KOL       0.004867
     51 H26A         0.7880     5.3970    10.5790 h1         1 KOL       0.004867
     52 H26B         2.5040     5.6600    10.9170 h1         1 KOL       0.004867
@<TRIPOS>BOND
     1     1     3 1   
     2     1     6 2   
     3     1    27 1   
     4     2     5 2   
     5     2    14 1   
     6     2    18 1   
     7     3     4 1   
     8     3     7 1   
     9     3    28 1   
    10     4    10 1   
    11     4    18 1   
    12     4    29 1   
    13     5    10 1   
    14     5    11 1   
    15     7     8 1   
    16     7     9 1   
    17     7    30 1   
    18     8    31 1   
    19     9    32 1   
    20     9    33 1   
    21     9    34 1   
    22    10    35 1   
    23    11    12 1   
    24    11    13 1   
    25    14    15 1   
    26    15    16 1   
    27    15    21 1   
    28    15    36 1   
    29    16    17 1   
    30    16    37 1   
    31    16    38 1   
    32    17    19 1   
    33    17    22 1   
    34    17    39 1   
    35    18    20 1   
    36    18    40 1   
    37    19    21 1   
    38    19    41 1   
    39    20    42 1   
    40    20    43 1   
    41    20    44 1   
    42    21    45 1   
    43    21    46 1   
    44    22    23 1   
    45    22    24 2   
    46    23    25 1   
    47    23    26 1   
    48    25    47 1   
    49    25    48 1   
    50    25    49 1   
    51    26    50 1   
    52    26    51 1   
    53    26    52 1   
@<TRIPOS>SUBSTRUCTURE
     1 KOL         1 TEMP              0 ****  ****    0 ROOT
