@<TRIPOS>MOLECULE
molecule
   29    31     1     0     0
SMALL
bcc


@<TRIPOS>ATOM
      1 O15          0.0000     0.0000     0.0000 o          1 KOM      -0.572500
      2 C13          1.2180     0.0000     0.0000 c          1 KOM       0.737800
      3 O14          1.8710     0.0000     1.1730 os         1 KOM      -0.296200
      4 C4           3.2200    -0.0010     1.2400 ca         1 KOM       0.156100
      5 C5           3.8700    -0.0000     2.4690 ca         1 KOM       0.069100
      6 O9           3.1490    -0.0000     3.6230 oh         1 KOM      -0.493100
      7 C6           5.2590    -0.0010     2.5140 ca         1 KOM       0.129100
      8 O10          5.8940    -0.0010     3.7150 oh         1 KOM      -0.509100
      9 C1           6.0030    -0.0020     1.3390 ca         1 KOM      -0.182000
     10 C12          1.9020    -0.0060    -1.2270 cc         1 KOM      -0.266200
     11 C11          3.2840    -0.0070    -1.2380 cd         1 KOM       0.081600
     12 C3           3.9820    -0.0010     0.0590 ca         1 KOM      -0.151800
     13 C2           5.3780    -0.0020     0.1230 ca         1 KOM      -0.064000
     14 C18          4.0380    -0.0140    -2.5110 ca         1 KOM      -0.077800
     15 C24          3.9570     1.0750    -3.3790 ca         1 KOM      -0.107000
     16 C23          4.6610     1.0620    -4.5650 ca         1 KOM      -0.128000
     17 C22          5.4480    -0.0270    -4.8940 ca         1 KOM      -0.116000
     18 C21          5.5330    -1.1100    -4.0370 ca         1 KOM      -0.128000
     19 C20          4.8380    -1.1080    -2.8460 ca         1 KOM      -0.107000
     20 HO9          3.0070     0.8880     3.9050 ho         1 KOM       0.428000
     21 HO10         6.2340    -0.8630     3.8910 ho         1 KOM       0.433000
     22 H1           7.0850    -0.0030     1.3870 ha         1 KOM       0.149000
     23 H12          1.3530    -0.1370    -2.1520 ha         1 KOM       0.177000
     24 H2           5.9630    -0.0030    -0.7880 ha         1 KOM       0.153000
     25 H24          3.3400     1.9290    -3.1230 ha         1 KOM       0.140000
     26 H23          4.5990     1.9080    -5.2390 ha         1 KOM       0.136500
     27 H22          5.9980    -0.0330    -5.8270 ha         1 KOM       0.134000
     28 H21          6.1530    -1.9590    -4.3000 ha         1 KOM       0.136500
     29 H20          4.9050    -1.9570    -2.1760 ha         1 KOM       0.140000
@<TRIPOS>BOND
     1     1     2 2
     2     2     3 1
     3     2    10 1
     4     3     4 1
     5     4     5 ar
     6     4    12 ar
     7     5     6 1
     8     5     7 ar
     9     7     8 1
    10     7     9 ar
    11     9    13 ar
    12    10    11 2
    13    11    12 1
    14    11    14 1
    15    12    13 ar
    16    14    15 ar
    17    14    19 ar
    18    15    16 ar
    19    16    17 ar
    20    17    18 ar
    21    18    19 ar
    22     6    20 1
    23     8    21 1
    24     9    22 1
    25    10    23 1
    26    13    24 1
    27    15    25 1
    28    16    26 1
    29    17    27 1
    30    18    28 1
    31    19    29 1
@<TRIPOS>SUBSTRUCTURE
     1 KOM         1 TEMP              0 ****  ****    0 ROOT
