@<TRIPOS>MOLECULE
KOM
   29    31     1     0     0
SMALL
bcc


@<TRIPOS>ATOM
      1 O15        -0.0720    0.1360    0.0710 o         1 KOM     -0.560500
      2 C13         1.1470    0.0680   -0.0710 c         1 KOM      0.716800
      3 O14         1.7900   -0.0460    1.1620 os        1 KOM     -0.297200
      4 C4          3.1650   -0.1070    1.1770 ca        1 KOM      0.149100
      5 C5          3.7630   -0.1910    2.4570 ca        1 KOM      0.090100
      6 O9          2.9350   -0.2190    3.5490 oh        1 KOM     -0.463100
      7 C6          5.1650   -0.2410    2.5410 ca        1 KOM      0.075100
      8 O10         5.6900   -0.3230    3.8120 oh        1 KOM     -0.508100
      9 C1          5.9590   -0.2050    1.3830 ca        1 KOM     -0.196000
     10 C12         1.9300    0.0850   -1.2960 cc        1 KOM     -0.250200
     11 C11         3.2830    0.0010   -1.2710 cd        1 KOM      0.098600
     12 C3          3.9580   -0.0850    0.0110 ca        1 KOM     -0.140800
     13 C2          5.3570   -0.1270    0.1380 ca        1 KOM     -0.074000
     14 C18         4.0530   -0.0010   -2.5170 ca        1 KOM     -0.078800
     15 C24         3.9210    1.0650   -3.4180 ca        1 KOM     -0.108500
     16 C23         4.6340    1.0600   -4.6160 ca        1 KOM     -0.131000
     17 C22         5.4720   -0.0100   -4.9280 ca        1 KOM     -0.116000
     18 C21         5.6000   -1.0770   -4.0380 ca        1 KOM     -0.131000
     19 C20         4.8960   -1.0750   -2.8350 ca        1 KOM     -0.108500
     20 HO9         3.4930   -0.2600    4.3430 ho        1 KOM      0.436000
     21 HO10        6.6550   -0.3300    3.7360 ho        1 KOM      0.435000
     22 H1          7.0540   -0.2370    1.4730 ha        1 KOM      0.143000
     23 H12         1.3560    0.1600   -2.2320 ha        1 KOM      0.173000
     24 H2          5.9800   -0.0930   -0.7700 ha        1 KOM      0.152000
     25 H24         3.2540    1.9060   -3.1750 ha        1 KOM      0.142000
     26 H23         4.5300    1.9010   -5.3170 ha        1 KOM      0.137500
     27 H22         6.0310   -0.0140   -5.8760 ha        1 KOM      0.137000
     28 H21         6.2550   -1.9260   -4.2860 ha        1 KOM      0.137500
     29 H20         4.9930   -1.9190   -2.1360 ha        1 KOM      0.142000
@<TRIPOS>BOND
     1    1    2 2   
     2    2    3 1   
     3    2   10 1   
     4    3    4 1   
     5    4    5 ar  
     6    4   12 ar  
     7    5    6 1   
     8    5    7 ar  
     9    6   20 1   
    10    7    8 1   
    11    7    9 ar  
    12    8   21 1   
    13    9   13 ar  
    14    9   22 1   
    15   10   11 2   
    16   10   23 1   
    17   11   12 1   
    18   11   14 1   
    19   12   13 ar  
    20   13   24 1   
    21   14   15 ar  
    22   14   19 ar  
    23   15   16 ar  
    24   15   25 1   
    25   16   17 ar  
    26   16   26 1   
    27   17   18 ar  
    28   17   27 1   
    29   18   19 ar  
    30   18   28 1   
    31   19   29 1   
@<TRIPOS>SUBSTRUCTURE
     1 KOM         1 TEMP              0 ****  ****    0 ROOT
