@<TRIPOS>MOLECULE
KOP
    9     8     1     0     0
SMALL
bcc


@<TRIPOS>ATOM
      1 P          -0.0670    0.0380   -0.0630 p5        1 KOP      1.316900
      2 C1          2.2720    0.9030    0.7080 c3        1 KOP      0.252700
      3 O4          1.6560   -0.1590    0.1130 os        1 KOP     -0.571200
      4 O1P        -0.4990    0.2150    1.3700 o         1 KOP     -0.938500
      5 O2P        -0.1440    1.2850   -0.9050 o         1 KOP     -0.938500
      6 O3P        -0.4650   -1.2500   -0.7310 o         1 KOP     -0.938500
      7 H1          1.5440    1.7160    0.9750 h1        1 KOP     -0.060633
      8 H1A         3.0700    1.3400    0.0320 h1        1 KOP     -0.060633
      9 H1B         2.8180    0.5820    1.6480 h1        1 KOP     -0.060633
@<TRIPOS>BOND
     1    1    3 1   
     2    1    4 1   
     3    1    5 1   
     4    1    6 1   
     5    2    3 1   
     6    2    7 1   
     7    2    8 1   
     8    2    9 1   
@<TRIPOS>SUBSTRUCTURE
     1 KOP         1 TEMP              0 ****  ****    0 ROOT
