@<TRIPOS>MOLECULE
molecule
    9     8     1     0     0
SMALL
bcc


@<TRIPOS>ATOM
      1 P            0.0000     0.0000     0.0000 p5         1 KOP       1.189900
      2 C1           2.3880     0.9820     0.6870 c3         1 KOP       0.220700
      3 O4           1.6100     0.0000     0.0000 os         1 KOP      -0.588200
      4 O1P         -0.4930     0.0000     1.3960 o          1 KOP      -0.917833
      5 O2P         -0.5370     1.3130    -0.7600 o          1 KOP      -0.917833
      6 O3P         -0.5360    -1.3160    -0.7580 o          1 KOP      -0.917833
      7 H1           2.0340     1.9720     0.4230 h1         1 KOP      -0.023300
      8 H1A          3.4280     0.8830     0.4020 h1         1 KOP      -0.023300
      9 H1B          2.2910     0.8370     1.7560 h1         1 KOP      -0.023300
@<TRIPOS>BOND
     1     1     3 1
     2     1     4 1
     3     1     5 1
     4     1     6 1
     5     2     3 1
     6     2     7 1
     7     2     8 1
     8     2     9 1
@<TRIPOS>SUBSTRUCTURE
     1 KOP         1 TEMP              0 ****  ****    0 ROOT
