@<TRIPOS>MOLECULE
KOT
   39    41     1     0     0
SMALL
bcc


@<TRIPOS>ATOM
      1 C14        -0.0840    0.2290    0.0850 ca        1 KOT     -0.111000
      2 C13         1.2790   -0.0600    0.0440 ca        1 KOT     -0.131500
      3 C12         1.9160   -0.6150    1.1530 ca        1 KOT     -0.123000
      4 C11         1.1840   -0.8840    2.3100 ca        1 KOT     -0.131500
      5 C10        -0.1780   -0.5990    2.3590 ca        1 KOT     -0.111000
      6 C9         -0.8260   -0.0380    1.2460 ca        1 KOT     -0.109500
      7 C8         -2.2400    0.2510    1.3120 cc        1 KOT      0.322800
      8 C7         -3.1240    0.1020    2.3990 cd        1 KOT     -0.192600
      9 N3         -3.0200    0.7780    0.2380 nc        1 KOT     -0.336000
     10 N2         -4.2200    0.9230    0.6050 nd        1 KOT     -0.170800
     11 N1         -4.3560    0.5690    1.9110 na        1 KOT      0.034400
     12 C1         -5.6170    0.4480    2.6230 c3        1 KOT      0.240800
     13 O5         -6.0200   -0.9310    2.5380 os        1 KOT     -0.435600
     14 C5         -7.1580   -1.2180    3.3560 c3        1 KOT      0.105100
     15 C6         -7.4160   -2.7190    3.1840 c3        1 KOT      0.141400
     16 O6         -6.3540   -3.4790    3.7130 oh        1 KOT     -0.592800
     17 C4         -8.3700   -0.3970    2.8920 c3        1 KOT      0.121100
     18 O4         -9.4200   -0.6590    3.8050 oh        1 KOT     -0.593800
     19 C3         -8.0150    1.1000    2.9000 c3        1 KOT      0.105100
     20 O3         -9.1260    1.7800    2.3450 oh        1 KOT     -0.601800
     21 C2         -6.7530    1.3390    2.0530 c3        1 KOT      0.091100
     22 O2         -6.4400    2.7090    2.1990 oh        1 KOT     -0.600800
     23 H14        -0.5740    0.6660   -0.7990 ha        1 KOT      0.139500
     24 H13         1.8530    0.1520   -0.8700 ha        1 KOT      0.134000
     25 H12         2.9920   -0.8420    1.1160 ha        1 KOT      0.133000
     26 H11         1.6820   -1.3230    3.1870 ha        1 KOT      0.134000
     27 H10        -0.7480   -0.8160    3.2740 ha        1 KOT      0.139500
     28 H7         -2.9890   -0.2620    3.4150 h4        1 KOT      0.196000
     29 H1         -5.4180    0.7180    3.7040 h2        1 KOT      0.076700
     30 H5         -6.9200   -0.9860    4.4300 h1        1 KOT      0.070700
     31 H6         -7.5770   -2.9580    2.1000 h1        1 KOT      0.068200
     32 H6A        -8.3220   -2.9990    3.7880 h1        1 KOT      0.068200
     33 HO6        -5.5700   -3.2760    3.1870 ho        1 KOT      0.410000
     34 H4         -8.6780   -0.7030    1.8540 h1        1 KOT      0.067700
     35 HO4       -10.1520   -0.0800    3.5510 ho        1 KOT      0.428000
     36 H3         -7.8430    1.4560    3.9540 h1        1 KOT      0.064700
     37 HO3        -8.8810    2.7140    2.2940 ho        1 KOT      0.429000
     38 H2         -6.9590    1.0790    0.9790 h1        1 KOT      0.088700
     39 HO2        -5.8400    2.9500    1.4810 ho        1 KOT      0.431000
@<TRIPOS>BOND
     1    1    2 ar
     2    1    6 ar
     3    1   23 1
     4    2    3 ar
     5    2   24 1
     6    3    4 ar
     7    3   25 1
     8    4    5 ar
     9    4   26 1
    10    5    6 ar
    11    5   27 1
    12    6    7 1
    13    7    8 2
    14    7    9 1
    15    8   11 1
    16    8   28 1
    17    9   10 2
    18   10   11 1
    19   11   12 1
    20   12   13 1
    21   12   21 1
    22   12   29 1
    23   13   14 1
    24   14   15 1
    25   14   17 1
    26   14   30 1
    27   15   16 1
    28   15   31 1
    29   15   32 1
    30   16   33 1
    31   17   18 1
    32   17   19 1
    33   17   34 1
    34   18   35 1
    35   19   20 1
    36   19   21 1
    37   19   36 1
    38   20   37 1
    39   21   22 1
    40   21   38 1
    41   22   39 1
@<TRIPOS>SUBSTRUCTURE
     1 KOT         1 TEMP              0 ****  ****    0 ROOT
