@<TRIPOS>MOLECULE
KOU
   34    35     1     0     0
SMALL
bcc


@<TRIPOS>ATOM
      1 C            0.0000     0.0000     0.0000 c2         1 KOU       0.424000
      2 N            1.9960     1.1950    -0.6900 n2         1 KOU       0.043000
      3 O           -0.6030     0.9090    -0.5190 o          1 KOU      -0.631500
      4 P            5.8380    -0.2490    -6.1160 p5         1 KOU       0.908500
      5 N1           4.1500     4.5180    -3.7310 n2         1 KOU      -0.062000
      6 C2           3.3930     4.6700    -2.6630 c2         1 KOU      -0.199000
      7 C3           2.9060     3.5670    -1.9750 c2         1 KOU       0.026000
      8 O3           2.1260     3.7280    -0.8760 oh         1 KOU      -0.192000
      9 C4           3.2320     2.2820    -2.4370 c3         1 KOU      -0.194000
     10 C5           4.0390     2.1760    -3.5760 c2         1 KOU       0.008000
     11 C6           4.4780     3.3280    -4.1960 c2         1 KOU      -0.105000
     12 CA           1.5070     0.0000     0.0000 c3         1 KOU      -0.107000
     13 CB           2.0170     0.0000     1.4430 c3         1 KOU       0.092000
     14 OG           1.4480     1.1030     2.1490 oh         1 KOU      -0.289000
     15 O1P          6.8730    -1.0720    -5.1970 o          1 KOU      -0.757833
     16 O2P          6.6000     0.3040    -7.4220 o          1 KOU      -0.757833
     17 O3P          4.7310    -1.1400    -6.5310 o          1 KOU      -0.757833
     18 C4A          2.7400     1.0770    -1.7410 c2         1 KOU      -0.364000
     19 C5A          4.4230     0.8240    -4.1190 c3         1 KOU       0.159000
     20 OXT         -0.6710    -1.0060     0.5810 o          1 KOU      -0.631500
     21 HO3          2.6230     4.1550    -0.1980 ho         1 KOU       0.163000
     22 H6           5.1020     3.2540    -5.0780 h4         1 KOU       0.173000
     23 HA           1.8680    -0.8850    -0.5100 h1         1 KOU       0.083000
     24 HB           3.0970     0.0890     1.4440 h1         1 KOU       0.010000
     25 HBA          1.7300    -0.9260     1.9270 h1         1 KOU       0.010000
     26 HOG          1.7160     1.0710     3.0520 ho         1 KOU       0.138000
     27 H2A          3.4050     6.7850    -2.9040 hc         1 KOU       0.029667
     28 H2AA         3.5300     6.2350    -1.2270 hc         1 KOU       0.029667
     29 H2AB         1.9790     6.1470    -2.0730 hc         1 KOU       0.029667
     30 H4A          3.5700     1.6840    -1.4010 DU         1 KOU       0.306000
     31 H5A          4.9730     0.2750    -3.3640 h1         1 KOU       0.055500
     32 H5AA         3.5290     0.2740    -4.3860 h1         1 KOU       0.055500
     33 C2A          3.0530     6.0560    -2.1830 c3         1 KOU      -0.042000
     34 O4P          5.2430     0.9900    -5.2770 os         1 KOU      -0.651000
@<TRIPOS>BOND
     1     1     3 1   
     2     1    12 1   
     3     1    20 1   
     4     2    12 1   
     5     2    18 1   
     6     4    15 1   
     7     4    16 1   
     8     4    17 1   
     9     4    34 1   
    10     5     6 1   
    11     5    11 1   
    12     6     7 1   
    13     6    33 1   
    14     7     8 1   
    15     7     9 1   
    16     8    21 1   
    17     9    10 1   
    18     9    18 1   
    19     9    30 1   
    20    10    11 1   
    21    10    19 1   
    22    11    22 1   
    23    12    13 1   
    24    12    23 1   
    25    13    14 1   
    26    13    24 1   
    27    13    25 1   
    28    14    26 1   
    29    18    30 1   
    30    19    31 1   
    31    19    32 1   
    32    19    34 1   
    33    27    33 1   
    34    28    33 1   
    35    29    33 1   
@<TRIPOS>SUBSTRUCTURE
     1 KOU         1 TEMP              0 ****  ****    0 ROOT
