@<TRIPOS>MOLECULE
molecule
   34    34     1     0     0
SMALL
bcc


@<TRIPOS>ATOM
      1 C            0.0000     0.0000     0.0000 c          1 KOU       0.915600
      2 N            1.9960     1.1950    -0.6900 n2         1 KOU      -0.526900
      3 O           -0.6030     0.9090    -0.5190 o          1 KOU      -0.845300
      4 P            5.8380    -0.2490    -6.1160 p5         1 KOU       1.185900
      5 N1           4.1500     4.5180    -3.7310 nb         1 KOU      -0.719000
      6 C2           3.3930     4.6700    -2.6630 ca         1 KOU       0.317600
      7 C3           2.9060     3.5670    -1.9750 ca         1 KOU       0.008800
      8 O3           2.1260     3.7280    -0.8760 oh         1 KOU      -0.468100
      9 C4           3.2320     2.2820    -2.4370 ca         1 KOU      -0.124900
     10 C5           4.0390     2.1760    -3.5760 ca         1 KOU      -0.144600
     11 C6           4.4780     3.3280    -4.1960 ca         1 KOU       0.417200
     12 CA           1.5070     0.0000     0.0000 c3         1 KOU       0.011500
     13 CB           2.0170     0.0000     1.4430 c3         1 KOU       0.173400
     14 OG           1.4480     1.1030     2.1490 oh         1 KOU      -0.573800
     15 O1P          6.8730    -1.0720    -5.1970 o          1 KOU      -0.912500
     16 O2P          6.6000     0.3040    -7.4220 o          1 KOU      -0.912500
     17 O3P          4.7310    -1.1400    -6.5310 o          1 KOU      -0.912500
     18 C4A          2.7400     1.0770    -1.7410 ce         1 KOU       0.421800
     19 C5A          4.4230     0.8240    -4.1190 c3         1 KOU       0.250700
     20 OXT         -0.6710    -1.0060     0.5810 o          1 KOU      -0.845300
     21 HO3          2.6440     4.0840    -0.1730 ho         1 KOU       0.389000
     22 H6           5.1020     3.2540    -5.0780 h4         1 KOU       0.070100
     23 HA           1.8680    -0.8850    -0.5100 h1         1 KOU       0.035700
     24 HB           3.0970     0.0890     1.4440 h1         1 KOU       0.002200
     25 HBA          1.7300    -0.9260     1.9270 h1         1 KOU       0.002200
     26 HOG          1.7130     1.0680     3.0530 ho         1 KOU       0.351000
     27 H2A          3.4040     6.7840    -2.9040 hc         1 KOU       0.027033
     28 H2AA         3.5310     6.2350    -1.2270 hc         1 KOU       0.027033
     29 H2AB         1.9790     6.1470    -2.0720 hc         1 KOU       0.027033
     30 H4A          3.0020     0.0930    -2.1110 h4         1 KOU      -0.013200
     31 H5A          4.9730     0.2750    -3.3640 h1         1 KOU       0.038700
     32 H5AA         3.5290     0.2740    -4.3860 h1         1 KOU       0.038700
     33 C2A          3.0530     6.0560    -2.1830 c3         1 KOU      -0.123400
     34 O4P          5.2430     0.9900    -5.2770 os         1 KOU      -0.586200
@<TRIPOS>BOND
     1     1    12 1
     2     1    20 1
     3     2    18 2
     4     2    12 1
     5     3     1 1
     6     4    16 1
     7     4    15 1
     8     5    11 ar
     9     6     5 ar
    10     6     7 ar
    11     7     9 ar
    12     8     7 1
    13     8    21 1
    14     9    10 ar
    15     9    18 1
    16    10    19 1
    17    11    10 ar
    18    11    22 1
    19    12    13 1
    20    12    23 1
    21    13    14 1
    22    13    24 1
    23    13    25 1
    24    14    26 1
    25    33     6 1
    26    33    27 1
    27    33    28 1
    28    33    29 1
    29    17     4 1
    30    18    30 1
    31    34     4 1
    32    19    34 1
    33    19    31 1
    34    19    32 1
@<TRIPOS>SUBSTRUCTURE
     1 KOU         1 TEMP              0 ****  ****    0 ROOT
