@<TRIPOS>MOLECULE
KOV
   46    46     1     0     0
SMALL
bcc


@<TRIPOS>ATOM
      1 S           0.2160    1.5250    0.1320 ss        1 KOV      0.247300
      2 C1          2.9750   -7.1300   -0.9250 c3        1 KOV      0.290600
      3 N1          1.6540   -6.5820   -0.7860 n2        1 KOV     -0.566900
      4 O1          3.9170   -6.3110   -1.6060 oh        1 KOV     -0.624800
      5 C2          1.2140   -5.5670   -1.4420 ce        1 KOV      0.397600
      6 N2          0.4150   -1.2860   -1.2770 n3        1 KOV     -0.924800
      7 O2         -0.5650   -2.3690    1.3810 o         1 KOV     -0.622100
      8 C3         -0.1730   -5.0870   -1.2610 ce        1 KOV     -0.250700
      9 N3          1.9290   -0.3110    1.3510 n         1 KOV     -0.292400
     10 O3          2.0280   -3.5240   -2.3960 o         1 KOV     -0.565100
     11 C4         -0.7110   -4.8730   -0.0940 c1        1 KOV      0.110200
     12 N4         -3.2350    5.1860    4.0190 n4        1 KOV     -0.796400
     13 C5         -1.2490   -4.6470    1.0750 ce        1 KOV     -0.298300
     14 O5         -2.2340    4.1100    2.1720 o         1 KOV     -0.701800
     15 C6         -1.1430   -3.3810    1.8050 c         1 KOV      0.613100
     16 O6         -1.6600    3.4360    4.2720 o         1 KOV     -0.701800
     17 C7          1.9780   -4.7540   -2.4560 c         1 KOV      0.482600
     18 O7          2.4150   -1.4650    4.2630 o         1 KOV     -0.476500
     19 C8          1.6350   -0.9180   -0.6980 cy        1 KOV      0.211500
     20 O8          1.2020    0.3280    4.8540 os        1 KOV     -0.369900
     21 C9          1.6300    0.4410    0.1200 cy        1 KOV     -0.008200
     22 C10         2.0820   -1.6120    0.6540 c         1 KOV      0.688500
     23 C11         1.5200    0.1010    2.5430 ce        1 KOV      0.284900
     24 C12         0.6700    1.2330    2.7440 ce        1 KOV     -0.341800
     25 C13         0.0090    1.8330    1.7000 c2        1 KOV     -0.033400
     26 C14         0.5050    1.4430    4.2180 c3        1 KOV      0.188600
     27 C15        -2.2520    4.1070    3.4140 c         1 KOV      0.909600
     28 C16         1.7940   -0.4790    3.9150 c         1 KOV      0.628300
     29 H1          4.3980   -5.7930   -0.9500 ho        1 KOV      0.416000
     30 H1A         2.8970   -8.0700   -1.5510 h2        1 KOV      0.096200
     31 H1B         3.3330   -7.3910    0.1130 h2        1 KOV      0.096200
     32 HN2         2.5010   -5.3380   -3.2480 h4        1 KOV      0.055200
     33 H4         -0.7320   -4.9050   -2.1970 ha        1 KOV      0.173000
     34 HN4        -3.9220    4.7230    4.6060 hn        1 KOV      0.433467
     35 HN4A       -3.7000    5.6820    3.2630 hn        1 KOV      0.433467
     36 H5         -1.6250   -3.3790    2.8100 h4        1 KOV      0.025200
     37 H6         -1.8180   -5.4470    1.5870 ha        1 KOV      0.177000
     38 H8          0.5120   -1.9600   -2.0120 hn        1 KOV      0.420800
     39 H9          2.4780   -0.9670   -1.4420 h1        1 KOV      0.137700
     40 H13         2.5190    1.0640   -0.1770 h2        1 KOV      0.129700
     41 H13A       -0.7920    2.5800    1.9520 h4        1 KOV      0.260000
     42 H14        -0.5630    1.3960    4.5570 h1        1 KOV      0.116200
     43 H14A        0.9930    2.3820    4.5860 h1        1 KOV      0.116200
     44 O4          2.4590   -2.6700    1.0870 o         1 KOV     -0.421500
     45 H22        -0.3090   -1.5240   -0.6290 hn        1 KOV      0.420800
     46 H43        -2.7050    5.8390    4.5890 hn        1 KOV      0.433467
@<TRIPOS>BOND
     1    1   21 1   
     2    1   25 1   
     3    2    3 1   
     4    2    4 1   
     5    2   30 1   
     6    2   31 1   
     7    3    5 2   
     8    4   29 1   
     9    5    8 1   
    10    5   17 1   
    11    6   19 1   
    12    6   38 1   
    13    6   45 1   
    14    7   15 2   
    15    8   11 2   
    16    8   33 1   
    17    9   21 1   
    18    9   22 1   
    19    9   23 2   
    20   10   17 2   
    21   11   13 2   
    22   12   27 1   
    23   12   34 1   
    24   12   35 1   
    25   12   46 1   
    26   13   15 1   
    27   13   37 1   
    28   14   27 1   
    29   15   36 1   
    30   16   27 1   
    31   17   32 1   
    32   18   28 2   
    33   19   21 1   
    34   19   22 1   
    35   19   39 1   
    36   20   26 1   
    37   20   28 1   
    38   21   40 1   
    39   22   44 2   
    40   23   24 1   
    41   23   28 1   
    42   24   25 2   
    43   24   26 1   
    44   25   41 1   
    45   26   42 1   
    46   26   43 1   
@<TRIPOS>SUBSTRUCTURE
     1 KOV         1 TEMP              0 ****  ****    0 ROOT
