@<TRIPOS>MOLECULE
molecule
   25    24     1     0     0
SMALL
bcc


@<TRIPOS>ATOM
      1 CAA          0.0000     0.0000     0.0000 c3         1 KP1      -0.114100
      2 CAH          1.5300     0.0000     0.0000 c3         1 KP1       0.149800
      3 CAB          2.0400     0.0000     1.4420 c3         1 KP1      -0.114100
      4 OAE          2.0060    -1.1680    -0.6720 oh         1 KP1      -0.607800
      5 CAG          2.0410     1.2480    -0.7220 c3         1 KP1      -0.056400
      6 CAI          1.4130     1.3240    -2.1150 c3         1 KP1       0.149800
      7 CAC          2.0300     2.4900    -2.8910 c3         1 KP1      -0.114100
      8 CAD          1.6740     0.0170    -2.8650 c3         1 KP1      -0.114100
      9 OAF          0.0030     1.5280    -1.9920 oh         1 KP1      -0.607800
     10 H1          -0.3610    -0.3830    -0.9470 hc         1 KP1       0.043867
     11 H2          -0.3610     1.0110     0.1420 hc         1 KP1       0.043867
     12 H3          -0.3610    -0.6290     0.8050 hc         1 KP1       0.043867
     13 H4           3.1230    -0.0190     1.4420 hc         1 KP1       0.043867
     14 H5           1.6630    -0.8750     1.9580 hc         1 KP1       0.043867
     15 H6           1.6940     0.8940     1.9470 hc         1 KP1       0.043867
     16 H7           2.0580    -1.8840    -0.0610 ho         1 KP1       0.396000
     17 H8           3.1190     1.1950    -0.8150 hc         1 KP1       0.055700
     18 H9           1.7700     2.1300    -0.1550 hc         1 KP1       0.055700
     19 H10          1.5980     2.5330    -3.8830 hc         1 KP1       0.043867
     20 H11          1.8280     3.4180    -2.3690 hc         1 KP1       0.043867
     21 H12          3.1000     2.3450    -2.9690 hc         1 KP1       0.043867
     22 H13          1.5910     0.1900    -3.9320 hc         1 KP1       0.043867
     23 H14          2.6700    -0.3390    -2.6340 hc         1 KP1       0.043867
     24 H15          0.9450    -0.7250    -2.5620 hc         1 KP1       0.043867
     25 H16         -0.3190     1.9680    -2.7610 ho         1 KP1       0.396000
@<TRIPOS>BOND
     1     9     6 1
     2     4     2 1
     3     6     8 1
     4     6     7 1
     5     6     5 1
     6     2     5 1
     7     2     3 1
     8     2     1 1
     9     1    10 1
    10     1    11 1
    11     1    12 1
    12     3    13 1
    13     3    14 1
    14     3    15 1
    15     4    16 1
    16     5    17 1
    17     5    18 1
    18     7    19 1
    19     7    20 1
    20     7    21 1
    21     8    22 1
    22     8    23 1
    23     8    24 1
    24     9    25 1
@<TRIPOS>SUBSTRUCTURE
     1 KP1         1 TEMP              0 ****  ****    0 ROOT
