@<TRIPOS>MOLECULE
KP1
   25    24     1     0     0
SMALL
bcc


@<TRIPOS>ATOM
      1 CAA        -0.0020   -0.1340    0.1020 c3        1 KP1     -0.120100
      2 CAH         1.5150   -0.0120    0.0620 c3        1 KP1      0.154800
      3 CAB         2.0540    0.1190    1.4870 c3        1 KP1     -0.120100
      4 OAE         2.0930   -1.1680   -0.5500 oh        1 KP1     -0.604800
      5 CAG         1.9840    1.1970   -0.7530 c3        1 KP1     -0.053400
      6 CAI         1.4330    1.3430   -2.1740 c3        1 KP1      0.154800
      7 CAC         2.1440    2.5140   -2.8560 c3        1 KP1     -0.120100
      8 CAD         1.6210    0.0810   -3.0040 c3        1 KP1     -0.120100
      9 OAF         0.0430    1.6550   -2.0450 oh        1 KP1     -0.604800
     10 H1         -0.4510    0.8430    0.3970 hc        1 KP1      0.043867
     11 H2         -0.3900   -0.4050   -0.9100 hc        1 KP1      0.043867
     12 H3         -0.3100   -0.9190    0.8330 hc        1 KP1      0.043867
     13 H4          1.6220    1.0220    1.9790 hc        1 KP1      0.043867
     14 H5          3.1660    0.2080    1.4690 hc        1 KP1      0.043867
     15 H6          1.7810   -0.7820    2.0850 hc        1 KP1      0.043867
     16 H7          1.7820   -1.9310   -0.0490 ho        1 KP1      0.397000
     17 H8          1.7020    2.1180   -0.1780 hc        1 KP1      0.057700
     18 H9          3.1020    1.1460   -0.8300 hc        1 KP1      0.057700
     19 H10         1.7150    2.6830   -3.8720 hc        1 KP1      0.043867
     20 H11         3.2320    2.2940   -2.9570 hc        1 KP1      0.043867
     21 H12         2.0120    3.4440   -2.2550 hc        1 KP1      0.043867
     22 H13         1.3630    0.2760   -4.0720 hc        1 KP1      0.043867
     23 H14         2.6800   -0.2610   -2.9360 hc        1 KP1      0.043867
     24 H15         0.9650   -0.7340   -2.6130 hc        1 KP1      0.043867
     25 H16        -0.3080    1.7270   -2.9390 ho        1 KP1      0.397000
@<TRIPOS>BOND
     1    1    2 1   
     2    1   10 1   
     3    1   11 1   
     4    1   12 1   
     5    2    3 1   
     6    2    4 1   
     7    2    5 1   
     8    3   13 1   
     9    3   14 1   
    10    3   15 1   
    11    4   16 1   
    12    5    6 1   
    13    5   17 1   
    14    5   18 1   
    15    6    7 1   
    16    6    8 1   
    17    6    9 1   
    18    7   19 1   
    19    7   20 1   
    20    7   21 1   
    21    8   22 1   
    22    8   23 1   
    23    8   24 1   
    24    9   25 1   
@<TRIPOS>SUBSTRUCTURE
     1 KP1         1 TEMP              0 ****  ****    0 ROOT
