@<TRIPOS>MOLECULE
KP2
   28    30     1     0     0
SMALL
bcc


@<TRIPOS>ATOM
      1 C1           0.0000     0.0000     0.0000 ca         1 KP2      -0.112000
      2 C2           1.3800     0.0000     0.0000 ca         1 KP2      -0.094500
      3 C3           2.0740     0.0000     1.1970 ca         1 KP2      -0.108000
      4 C4           1.3910    -0.0000     2.4000 ca         1 KP2      -0.094500
      5 C5           0.0100     0.0000     2.4120 ca         1 KP2      -0.112000
      6 C6          -0.6940     0.0000     1.2090 ca         1 KP2       0.002200
      7 C7          -2.1770     0.0010     1.2150 cc         1 KP2      -0.053400
      8 C8          -3.0530    -0.8960     1.9800 ca         1 KP2      -0.407400
      9 C9          -2.8460    -1.9560     2.8760 ca         1 KP2       0.603200
     10 N1          -1.5680    -2.3590     3.2120 nv         1 KP2      -0.538500
     11 N2          -3.9100    -2.5610     3.3950 nb         1 KP2      -0.751000
     12 C10         -5.1380    -2.1770     3.0750 ca         1 KP2       0.770900
     13 N3          -6.2140    -2.8400     3.6430 nv         1 KP2      -0.626500
     14 N4          -5.3760    -1.1830     2.2360 nb         1 KP2      -0.700000
     15 C11         -4.3690    -0.5190     1.6680 ca         1 KP2       0.301800
     16 N5          -4.2980     0.5240     0.7840 na         1 KP2       0.276900
     17 C12         -2.9900     0.8340     0.5210 cd         1 KP2      -0.280100
     18 H1          -0.5430    -0.0000    -0.9380 ha         1 KP2       0.113000
     19 H2           1.9210    -0.0000    -0.9390 ha         1 KP2       0.103000
     20 H3           3.1570    -0.0000     1.1920 ha         1 KP2       0.103000
     21 H4           1.9400    -0.0000     3.3330 ha         1 KP2       0.103000
     22 H5          -0.5240     0.0010     3.3540 ha         1 KP2       0.113000
     23 H6          -1.4340    -3.1460     3.8150 hn         1 KP2       0.286300
     24 H7          -0.7760    -1.8620     2.8540 hn         1 KP2       0.286300
     25 H8          -6.7410    -3.4950     3.1000 hn         1 KP2       0.275300
     26 H9          -6.4580    -2.6710     4.5990 hn         1 KP2       0.275300
     27 H10         -5.0880     0.9960     0.3910 hn         1 KP2       0.118700
     28 H11         -2.6570     1.6250    -0.1400 h4         1 KP2       0.147000
@<TRIPOS>BOND
     1     1     2 ar  
     2     1     6 ar  
     3     1    18 1   
     4     2     3 ar  
     5     2    19 1   
     6     3     4 ar  
     7     3    20 1   
     8     4     5 ar  
     9     4    21 1   
    10     5     6 ar  
    11     5    22 1   
    12     6     7 1   
    13     7     8 1   
    14     7    17 2   
    15     8     9 ar  
    16     8    15 ar  
    17     9    10 1   
    18     9    11 ar  
    19    10    23 1   
    20    10    24 1   
    21    11    12 ar  
    22    12    13 1   
    23    12    14 ar  
    24    13    25 1   
    25    13    26 1   
    26    14    15 ar  
    27    15    16 1   
    28    16    17 1   
    29    16    27 1   
    30    17    28 1   
@<TRIPOS>SUBSTRUCTURE
     1 KP2         1 TEMP              0 ****  ****    0 ROOT
