@<TRIPOS>MOLECULE
KP3
   76    81     1     0     0
SMALL
bcc


@<TRIPOS>ATOM
      1 O2           0.0000     0.0000     0.0000 o          1 KP3      -0.618500
      2 C7           1.2150     0.0000     0.0000 c          1 KP3       0.828200
      3 C6           2.0550     0.0000     1.2040 ca         1 KP3      -0.287600
      4 C1           1.7480    -0.0000     2.5740 ca         1 KP3       0.241100
      5 O3           0.4550    -0.0010     2.9830 oh         1 KP3      -0.483100
      6 O1           1.9820    -0.0050    -1.1050 os         1 KP3      -0.377900
      7 C9           3.3810    -0.0030    -0.7090 c3         1 KP3       0.276700
      8 C5           3.3950     0.0010     0.8000 ca         1 KP3      -0.085300
      9 C4           4.4020     0.0040     1.7310 ca         1 KP3      -0.114300
     10 C12          5.8410     0.0050     1.2840 c3         1 KP3       0.063200
     11 C3           4.0950     0.0070     3.0900 ca         1 KP3       0.184100
     12 O4           5.0930     0.0110     4.0080 os         1 KP3      -0.332900
     13 C14          5.5690     1.2860     4.4450 c3         1 KP3       0.256700
     14 C2           2.7710     0.0000     3.5060 ca         1 KP3      -0.156300
     15 C15          2.4470    -0.0000     4.9770 c3         1 KP3       0.066100
     16 C16          2.3390    -1.4210     5.4680 c2         1 KP3      -0.090200
     17 C17          1.2630    -1.8150     6.1010 c2         1 KP3      -0.189400
     18 C18          0.1930    -0.8170     6.4640 c3         1 KP3       0.057100
     19 C19          1.0940    -3.2670     6.4700 c3         1 KP3       0.033500
     20 N1           1.5570    -3.4800     7.8420 na         1 KP3       0.592400
     21 C24          0.8370    -4.0330     8.8460 cc         1 KP3      -0.427600
     22 C23          1.6430    -4.0360     9.9320 cd         1 KP3       0.248600
     23 N3           2.8030    -3.4930     9.5470 nd         1 KP3      -0.318000
     24 N2           2.7220    -3.1800     8.3020 nc         1 KP3      -0.371800
     25 C25          1.3020    -4.5500    11.3070 c3         1 KP3       0.218100
     26 O5          -0.0370    -5.0510    11.3100 os         1 KP3      -0.413600
     27 C27         -0.4620    -5.5660    12.5730 c3         1 KP3       0.215400
     28 C28         -1.9020    -6.0720    12.4590 c3         1 KP3       0.161100
     29 C32         -2.4130    -6.5540    13.8340 c3         1 KP3       0.133100
     30 O7          -3.2000    -5.5380    14.4600 oh         1 KP3      -0.547800
     31 C31         -3.2810    -7.7880    13.5010 c3         1 KP3       0.124100
     32 O8          -4.6340    -7.5740    13.9090 oh         1 KP3      -0.539800
     33 C30         -3.1920    -7.9050    11.9630 c3         1 KP3       0.148800
     34 O6          -1.9580    -7.2410    11.6120 os         1 KP3      -0.388600
     35 N4          -3.1460    -9.3130    11.5620 na         1 KP3       0.198000
     36 C39         -4.2250   -10.1370    11.3640 ca         1 KP3       0.229800
     37 N6          -5.5440    -9.9930    11.4490 nb         1 KP3      -0.609000
     38 C41         -6.3470   -11.0020    11.1890 ca         1 KP3       0.635900
     39 N7          -5.8980   -12.1930    10.8350 nb         1 KP3      -0.658000
     40 C43         -4.5960   -12.4320    10.7230 ca         1 KP3       0.598200
     41 N8          -4.1350   -13.6830    10.3520 nv         1 KP3      -0.644500
     42 C38         -3.6980   -11.3850    10.9910 ca         1 KP3      -0.183200
     43 N5          -2.3490   -11.2600    10.9800 nc         1 KP3      -0.492100
     44 C36         -2.0220   -10.0440    11.3100 cd         1 KP3       0.271700
     45 H1           0.0320     0.7890     2.6890 ho         1 KP3       0.419000
     46 H2           3.8590    -0.9060    -1.0710 h1         1 KP3       0.031700
     47 H3           3.8570     0.8990    -1.0750 h1         1 KP3       0.031700
     48 H4           6.4450    -0.5300     2.0070 hc         1 KP3       0.014033
     49 H5           5.9200    -0.4810     0.3190 hc         1 KP3       0.014033
     50 H6           6.1940     1.0260     1.2040 hc         1 KP3       0.014033
     51 H7           4.9610     2.0680     4.0070 h1         1 KP3      -0.004633
     52 H8           6.5990     1.4130     4.1330 h1         1 KP3      -0.004633
     53 H9           5.5090     1.3440     5.5250 h1         1 KP3      -0.004633
     54 H10          3.2340     0.5100     5.5200 hc         1 KP3       0.036700
     55 H11          1.5060     0.5110     5.1400 hc         1 KP3       0.036700
     56 H12          3.1590    -2.1110     5.3110 ha         1 KP3       0.119000
     57 H13         -0.5440    -1.2930     7.0990 hc         1 KP3       0.013367
     58 H14         -0.2860    -0.4570     5.5610 hc         1 KP3       0.013367
     59 H15          0.6410     0.0160     6.9920 hc         1 KP3       0.013367
     60 H16          0.0490    -3.5390     6.3950 h1         1 KP3       0.042200
     61 H17          1.6760    -3.8810     5.7930 h1         1 KP3       0.042200
     62 H18         -0.1820    -4.3990     8.7910 h4         1 KP3       0.172000
     63 H19          1.9860    -5.3460    11.5750 h1         1 KP3       0.001700
     64 H20          1.3870    -3.7440    12.0260 h1         1 KP3       0.001700
     65 H21          0.1860    -6.3830    12.8670 h1         1 KP3       0.000200
     66 H22         -0.4130    -4.7810    13.3180 h1         1 KP3       0.000200
     67 H23         -2.5500    -5.2960    12.0690 h1         1 KP3       0.052700
     68 H24         -1.5810    -6.8390    14.4660 h1         1 KP3       0.014700
     69 H25         -2.8830    -5.3890    15.3350 ho         1 KP3       0.389000
     70 H26         -2.8720    -8.6740    13.9710 h1         1 KP3       0.019700
     71 H27         -4.8060    -8.0630    14.6980 ho         1 KP3       0.393000
     72 H28         -4.0320    -7.4030    11.5000 h2         1 KP3       0.070700
     73 H29         -7.4170   -10.8500    11.2680 h5         1 KP3      -0.000900
     74 H30         -3.9530   -14.3760    11.0500 hn         1 KP3       0.281800
     75 H31         -4.0130   -13.9030     9.3830 hn         1 KP3       0.281800
     76 H32         -1.0080    -9.6690    11.3750 h5         1 KP3       0.041800
@<TRIPOS>BOND
     1     1     2 2   
     2     2     3 1   
     3     2     6 1   
     4     3     4 ar  
     5     3     8 ar  
     6     4     5 1   
     7     4    14 ar  
     8     5    45 1   
     9     6     7 1   
    10     7     8 1   
    11     7    46 1   
    12     7    47 1   
    13     8     9 ar  
    14     9    10 1   
    15     9    11 ar  
    16    10    48 1   
    17    10    49 1   
    18    10    50 1   
    19    11    12 1   
    20    11    14 ar  
    21    12    13 1   
    22    13    51 1   
    23    13    52 1   
    24    13    53 1   
    25    14    15 1   
    26    15    16 1   
    27    15    54 1   
    28    15    55 1   
    29    16    17 2   
    30    16    56 1   
    31    17    18 1   
    32    17    19 1   
    33    18    57 1   
    34    18    58 1   
    35    18    59 1   
    36    19    20 1   
    37    19    60 1   
    38    19    61 1   
    39    20    21 1   
    40    20    24 1   
    41    21    22 2   
    42    21    62 1   
    43    22    23 1   
    44    22    25 1   
    45    23    24 2   
    46    25    26 1   
    47    25    63 1   
    48    25    64 1   
    49    26    27 1   
    50    27    28 1   
    51    27    65 1   
    52    27    66 1   
    53    28    29 1   
    54    28    34 1   
    55    28    67 1   
    56    29    30 1   
    57    29    31 1   
    58    29    68 1   
    59    30    69 1   
    60    31    32 1   
    61    31    33 1   
    62    31    70 1   
    63    32    71 1   
    64    33    34 1   
    65    33    35 1   
    66    33    72 1   
    67    35    36 1   
    68    35    44 1   
    69    36    37 ar  
    70    36    42 ar  
    71    37    38 ar  
    72    38    39 ar  
    73    38    73 1   
    74    39    40 ar  
    75    40    41 1   
    76    40    42 ar  
    77    41    74 1   
    78    41    75 1   
    79    42    43 1   
    80    43    44 2   
    81    44    76 1   
@<TRIPOS>SUBSTRUCTURE
     1 KP3         1 TEMP              0 ****  ****    0 ROOT
