@<TRIPOS>MOLECULE
molecule
   25    25     1     0     0
SMALL
bcc


@<TRIPOS>ATOM
      1 O11          0.0000     0.0000     0.0000 oh         1 KP6      -0.616800
      2 C10          1.4290     0.0000     0.0000 c3         1 KP6       0.141400
      3 C09          1.9400     0.0000     1.4420 c3         1 KP6       0.007900
      4 C08          3.4470     0.0000     1.4420 cc         1 KP6      -0.311600
      5 C06          4.2430    -1.0940     1.4370 cd         1 KP6      -0.061600
      6 C07          3.7820    -2.5280     1.4300 c3         1 KP6      -0.028800
      7 N04          5.5240    -0.6690     1.4380 na         1 KP6       0.065400
      8 C05          6.7140    -1.5230     1.4340 c3         1 KP6       0.065600
      9 N03          5.5150     0.7310     1.4450 nd         1 KP6      -0.514800
     10 C02          4.2700     1.1320     1.4410 cc         1 KP6       0.348600
     11 C01          3.8020     2.5640     1.4400 c3         1 KP6      -0.109400
     12 H1          -0.3140    -0.0080    -0.8890 ho         1 KP6       0.401000
     13 H2           1.7900     0.8840    -0.5110 h1         1 KP6       0.020700
     14 H3           1.7900    -0.8840    -0.5110 h1         1 KP6       0.020700
     15 H4           1.5790    -0.8850     1.9530 hc         1 KP6       0.054700
     16 H5           1.5790     0.8840     1.9530 hc         1 KP6       0.054700
     17 H6           3.6210    -2.8500     0.4080 hc         1 KP6       0.051033
     18 H7           4.5380    -3.1520     1.8910 hc         1 KP6       0.051033
     19 H8           2.8560    -2.6120     1.9860 hc         1 KP6       0.051033
     20 H9           6.7500    -2.0970     2.3520 h1         1 KP6       0.053033
     21 H10          7.6010    -0.9060     1.3580 h1         1 KP6       0.053033
     22 H11          6.6710    -2.1990     0.5880 h1         1 KP6       0.053033
     23 H12          3.2330     2.7570     0.5380 hc         1 KP6       0.049700
     24 H13          4.6600     3.2240     1.4740 hc         1 KP6       0.049700
     25 H14          3.1760     2.7400     2.3060 hc         1 KP6       0.049700
@<TRIPOS>BOND
     1     8     7 1
     2     6     5 1
     3     7     5 1
     4     7     9 1
     5     5     4 2
     6     9    10 2
     7     2     1 1
     8     2     3 1
     9     4     3 1
    10     4    10 1
    11    10    11 1
    12     1    12 1
    13     2    13 1
    14     2    14 1
    15     3    15 1
    16     3    16 1
    17     6    17 1
    18     6    18 1
    19     6    19 1
    20     8    20 1
    21     8    21 1
    22     8    22 1
    23    11    23 1
    24    11    24 1
    25    11    25 1
@<TRIPOS>SUBSTRUCTURE
     1 KP6         1 TEMP              0 ****  ****    0 ROOT
