@<TRIPOS>MOLECULE
KPA
   18    17     1     0     0
SMALL
bcc


@<TRIPOS>ATOM
      1 OA          0.0510    0.6910    0.2470 o         1 KPA     -0.613100
      2 CA          1.1850    0.2270    0.0550 c         1 KPA      0.485100
      3 C           2.1350   -0.0070    1.2370 c         1 KPA      0.831600
      4 OXT         2.9140    0.9310    1.5850 o         1 KPA     -0.862800
      5 O           2.1070   -1.1250    1.8350 o         1 KPA     -0.862800
      6 CB          1.7370   -0.1220   -1.2960 c3        1 KPA     -0.175400
      7 CG          0.8430    0.1330   -2.5030 c3        1 KPA     -0.032400
      8 CP          1.6170    0.1840   -3.7800 c3        1 KPA     -0.276600
      9 P           0.6240   -0.2770   -5.2060 p5        1 KPA      1.222700
     10 O1         -0.0440    1.0090   -5.6560 o         1 KPA     -0.971167
     11 O2          1.6690   -0.7810   -6.1880 o         1 KPA     -0.971167
     12 O3         -0.3390   -1.3520   -4.7440 o         1 KPA     -0.971167
     13 HB1         2.6880    0.4670   -1.4090 hc        1 KPA      0.043700
     14 HB2         2.0240   -1.2070   -1.2660 hc        1 KPA      0.043700
     15 HG1         0.2910    1.0950   -2.3190 hc        1 KPA      0.044200
     16 HG2         0.0740   -0.6830   -2.6000 hc        1 KPA      0.044200
     17 HP1         2.0220    1.2020   -3.9640 hc        1 KPA      0.011200
     18 HP2         2.4730   -0.5260   -3.7530 hc        1 KPA      0.011200
@<TRIPOS>BOND
     1    1    2 2   
     2    2    3 1   
     3    2    6 1   
     4    3    4 1   
     5    3    5 1   
     6    6    7 1   
     7    6   13 1   
     8    6   14 1   
     9    7    8 1   
    10    7   15 1   
    11    7   16 1   
    12    8    9 1   
    13    8   17 1   
    14    8   18 1   
    15    9   10 1   
    16    9   11 1   
    17    9   12 1   
@<TRIPOS>SUBSTRUCTURE
     1 KPA         1 TEMP              0 ****  ****    0 ROOT
