@<TRIPOS>MOLECULE
molecule
   18    17     1     0     0
SMALL
bcc


@<TRIPOS>ATOM
      1 OA           0.0000     0.0000     0.0000 o          1 KPA      -0.546100
      2 CA           1.2080     0.0000     0.0000 c          1 KPA       0.466100
      3 C            1.9540     0.0000     1.2910 c          1 KPA       0.801600
      4 OXT          1.2800     0.0020     2.4570 o          1 KPA      -0.858800
      5 O            3.1650     0.0000     1.2920 o          1 KPA      -0.858800
      6 CB           1.9620    -0.0010    -1.3050 c3         1 KPA      -0.181400
      7 CG           0.9680    -0.0020    -2.4680 c3         1 KPA      -0.037400
      8 CP           1.7330    -0.0040    -3.7930 c3         1 KPA      -0.256600
      9 P            0.5490    -0.0040    -5.1790 p5         1 KPA       1.079700
     10 O1          -0.3800     1.1390    -5.0350 o          1 KPA      -0.935167
     11 O2           1.3500     0.1260    -6.5690 o          1 KPA      -0.935167
     12 O3          -0.2880    -1.3800    -5.1690 o          1 KPA      -0.935167
     13 HB1          2.5850     0.8830    -1.3630 hc         1 KPA       0.040700
     14 HB2          2.5850    -0.8860    -1.3610 hc         1 KPA       0.040700
     15 HG1          0.3450    -0.8860    -2.4100 hc         1 KPA       0.049200
     16 HG2          0.3450     0.8820    -2.4120 hc         1 KPA       0.049200
     17 HP1          2.3550    -0.8890    -3.8500 hc         1 KPA       0.008700
     18 HP2          2.3560     0.8800    -3.8510 hc         1 KPA       0.008700
@<TRIPOS>BOND
     1     1     2 2
     2     2     3 1
     3     2     6 1
     4     3     4 1
     5     3     5 1
     6     6     7 1
     7     6    13 1
     8     6    14 1
     9     7     8 1
    10     7    15 1
    11     7    16 1
    12     8     9 1
    13     8    17 1
    14     8    18 1
    15     9    10 1
    16     9    11 1
    17     9    12 1
@<TRIPOS>SUBSTRUCTURE
     1 KPA         1 TEMP              0 ****  ****    0 ROOT
