@<TRIPOS>MOLECULE
KPC
   20    19     1     0     0
SMALL
bcc


@<TRIPOS>ATOM
      1 CAK         1.4100    0.7100   -1.0710 c3        1 KPC     -0.207100
      2 CAJ         1.6610   -0.3780   -0.0790 c         1 KPC      0.581100
      3 OAC         1.0610   -0.4330    1.0030 o         1 KPC     -0.562100
      4 CAI         2.6680   -1.4190   -0.4650 c3        1 KPC     -0.133300
      5 SAH         4.2970   -0.7660   -0.6190 ss        1 KPC     -0.324200
      6 CAG         4.4270   -0.4450   -2.3680 c3        1 KPC      0.058700
      7 CAF         5.6990    0.2850   -2.6040 c3        1 KPC     -0.279600
      8 SAE         5.7990    0.9210   -4.2880 s6        1 KPC      1.427800
      9 OAD         6.0330   -0.2210   -5.0850 o         1 KPC     -0.746867
     10 OAL         6.8790    1.8280   -4.2390 o         1 KPC     -0.746867
     11 OAB         4.5400    1.5260   -4.5100 o         1 KPC     -0.746867
     12 HAK1        0.5540    1.3500   -0.7490 hc        1 KPC      0.071367
     13 HAK2        2.3260    1.3480   -1.1640 hc        1 KPC      0.071367
     14 HAK3        1.1860    0.2740   -2.0750 hc        1 KPC      0.071367
     15 HAI1        2.3460   -1.8980   -1.4230 h1        1 KPC      0.084700
     16 HAI2        2.7120   -2.2100    0.3270 h1        1 KPC      0.084700
     17 HAG1        3.5530    0.1700   -2.7050 h1        1 KPC      0.067700
     18 HAG2        4.4110   -1.4130   -2.9260 h1        1 KPC      0.067700
     19 HAF1        6.5780   -0.3800   -2.4290 h1        1 KPC      0.079200
     20 HAF2        5.7940    1.1510   -1.9050 h1        1 KPC      0.079200
@<TRIPOS>BOND
     1    1    2 1   
     2    1   12 1   
     3    1   13 1   
     4    1   14 1   
     5    2    3 2   
     6    2    4 1   
     7    4    5 1   
     8    4   15 1   
     9    4   16 1   
    10    5    6 1   
    11    6    7 1   
    12    6   17 1   
    13    6   18 1   
    14    7    8 1   
    15    7   19 1   
    16    7   20 1   
    17    8    9 1   
    18    8   10 1   
    19    8   11 1   
@<TRIPOS>SUBSTRUCTURE
     1 KPC         1 TEMP              0 ****  ****    0 ROOT
