@<TRIPOS>MOLECULE
molecule
   20    19     1     0     0
SMALL
bcc


@<TRIPOS>ATOM
      1 CAK          0.0000     0.0000     0.0000 c3         1 KPC      -0.194100
      2 CAJ          1.5070     0.0000     0.0000 c          1 KPC       0.572100
      3 OAC          2.1100     0.0000     1.0450 o          1 KPC      -0.503100
      4 CAI          2.2610    -0.0000    -1.3050 c3         1 KPC      -0.112300
      5 SAH          4.0430     0.0000    -0.9730 ss         1 KPC      -0.309200
      6 CAG          4.6800    -0.0000    -2.6700 c3         1 KPC       0.039700
      7 CAF          6.2090    -0.0000    -2.6420 c3         1 KPC      -0.237600
      8 SAE          6.8470    -0.0000    -4.3400 s6         1 KPC       1.242800
      9 OAD          6.6120    -1.2430    -4.9870 o          1 KPC      -0.699867
     10 OAL          8.3560    -0.0000    -4.1450 o          1 KPC      -0.699867
     11 OAB          6.6130     1.2430    -4.9860 o          1 KPC      -0.699867
     12 HAK1        -0.3610     0.8850    -0.5110 hc         1 KPC       0.056033
     13 HAK2        -0.3610    -0.0000     1.0210 hc         1 KPC       0.056033
     14 HAK3        -0.3610    -0.8840    -0.5110 hc         1 KPC       0.056033
     15 HAI1         2.0000    -0.8840    -1.8730 h1         1 KPC       0.072700
     16 HAI2         2.0000     0.8840    -1.8730 h1         1 KPC       0.072700
     17 HAG1         4.3290     0.8840    -3.1870 h1         1 KPC       0.054700
     18 HAG2         4.3290    -0.8840    -3.1870 h1         1 KPC       0.054700
     19 HAF1         6.5610    -0.8840    -2.1250 h1         1 KPC       0.088700
     20 HAF2         6.5610     0.8840    -2.1250 h1         1 KPC       0.088700
@<TRIPOS>BOND
     1     1     2 1
     2     1    12 1
     3     1    13 1
     4     1    14 1
     5     2     3 2
     6     2     4 1
     7     4     5 1
     8     4    15 1
     9     4    16 1
    10     5     6 1
    11     6     7 1
    12     6    17 1
    13     6    18 1
    14     7     8 1
    15     7    19 1
    16     7    20 1
    17     8     9 1
    18     8    10 1
    19     8    11 1
@<TRIPOS>SUBSTRUCTURE
     1 KPC         1 TEMP              0 ****  ****    0 ROOT
