@<TRIPOS>MOLECULE
molecule
   28    27     1     0     0
SMALL
bcc


@<TRIPOS>ATOM
      1 P            0.0000     0.0000     0.0000 p5         1 KPG       1.173900
      2 C1           6.1930     5.0680     0.1070 c3         1 KPG       0.313900
      3 C2           6.1120     3.7550     0.8880 c3         1 KPG       0.150100
      4 O2           5.8640     4.0360     2.2680 oh         1 KPG      -0.581800
      5 C3           4.9730     2.8990     0.3300 c3         1 KPG       0.160100
      6 O3           5.2210     2.6180    -1.0480 oh         1 KPG      -0.597800
      7 C4           4.8920     1.5850     1.1120 c3         1 KPG       0.024100
      8 O4           6.1630     0.9330     1.0810 oh         1 KPG      -0.601800
      9 C5           3.8540     0.6920     0.4850 c          1 KPG       0.511100
     10 O5           4.1950    -0.2570    -0.1800 o          1 KPG      -0.481100
     11 C6           2.3890     0.9800     0.6870 c3         1 KPG       0.135400
     12 O6           1.6100     0.0000     0.0000 os         1 KPG      -0.549200
     13 O1P         -0.4930     0.0000     1.3950 o          1 KPG      -0.905167
     14 O2P         -0.5360     1.3150    -0.7580 o          1 KPG      -0.905167
     15 O3P         -0.5370    -1.3130    -0.7590 o          1 KPG      -0.905167
     16 H2           7.0480     3.2180     0.7920 h1         1 KPG       0.065700
     17 HO2          6.6640     3.9390     2.7580 ho         1 KPG       0.395000
     18 H3           4.0370     3.4350     0.4270 h1         1 KPG       0.085700
     19 HO3          4.5360     2.9960    -1.5750 ho         1 KPG       0.413000
     20 H4           4.6170     1.7930     2.1390 h1         1 KPG       0.055700
     21 HO4          6.2670     0.4090     1.8570 ho         1 KPG       0.390000
     22 H6           2.1570     1.9640     0.2960 h1         1 KPG       0.030700
     23 H6A          2.1570     0.9490     1.7450 h1         1 KPG       0.030700
     24 HO11         5.0190     6.6000    -0.2130 ho         1 KPG       0.389500
     25 HO12         7.7920     6.1550    -0.1970 ho         1 KPG       0.389500
     26 H1           6.2930     4.8540    -0.9500 h2         1 KPG       0.030700
     27 O11          5.0040     5.8280     0.3290 oh         1 KPG      -0.608800
     28 O12          7.3270     5.8160     0.5500 oh         1 KPG      -0.608800
@<TRIPOS>BOND
     1    13     1 1
     2    14     1 1
     3     1    15 1
     4     1    12 1
     5    28     2 1
     6     2     3 1
     7     2    27 1
     8     4     3 1
     9     3     5 1
    10     3    16 1
    11     4    17 1
    12     7     5 1
    13     5     6 1
    14     5    18 1
    15     6    19 1
    16     7     8 1
    17     7     9 1
    18     7    20 1
    19     8    21 1
    20    11     9 1
    21     9    10 2
    22    12    11 1
    23    11    22 1
    24    11    23 1
    25    27    24 1
    26    28    25 1
    27     2    26 1
@<TRIPOS>SUBSTRUCTURE
     1 KPG         1 TEMP              0 ****  ****    0 ROOT
