@<TRIPOS>MOLECULE
KPG
   28    27     1     0     0
SMALL
bcc


@<TRIPOS>ATOM
      1 P           1.4130    2.3530   -0.2870 p5        1 KPG      1.332900
      2 C1          5.6560    4.6510   -0.3390 c3        1 KPG      0.331900
      3 C2          5.7100    3.6320    0.8230 c3        1 KPG      0.078100
      4 O2          5.3060    4.2750    2.0230 oh        1 KPG     -0.634800
      5 C3          4.8040    2.4350    0.5070 c3        1 KPG      0.087100
      6 O3          4.9900    2.0610   -0.8420 oh        1 KPG     -0.667800
      7 C4          5.0990    1.2330    1.4120 c3        1 KPG      0.026100
      8 O4          6.4460    0.7980    1.2810 oh        1 KPG     -0.619800
      9 C5          4.1310    0.0880    1.1430 c         1 KPG      0.533100
     10 O5          4.5780   -1.0650    1.0470 o         1 KPG     -0.609100
     11 C6          2.6380    0.3940    1.0520 c3        1 KPG      0.125400
     12 O6          2.3110    0.8690   -0.1900 os        1 KPG     -0.564200
     13 O1P         1.2870    2.7460    1.1570 o         1 KPG     -0.917167
     14 O2P         2.4920    3.1520   -1.0000 o         1 KPG     -0.917167
     15 O3P         0.1790    1.9960   -1.0460 o         1 KPG     -0.917167
     16 H2          6.7690    3.3080    1.0070 h1        1 KPG      0.069700
     17 HO2         4.3750    4.5160    1.9020 ho        1 KPG      0.427000
     18 H3          3.7200    2.7480    0.6780 h1        1 KPG      0.137700
     19 HO3         4.0850    2.0980   -1.2440 ho        1 KPG      0.491000
     20 H4          5.0050    1.5530    2.4880 h1        1 KPG      0.078700
     21 HO4         6.5290    0.4780    0.3740 ho        1 KPG      0.408000
     22 H6          2.1050   -0.5860    1.2450 h1        1 KPG      0.027700
     23 H6A         2.3670    1.1340    1.8620 h1        1 KPG      0.027700
     24 HO11        3.7330    4.6250   -0.6700 ho        1 KPG      0.458500
     25 HO12        6.2080    6.1870    0.6760 ho        1 KPG      0.458500
     26 H1          5.9620    4.1800   -1.3110 h2        1 KPG      0.077700
     27 O11         4.4100    5.2920   -0.4050 oh        1 KPG     -0.665300
     28 O12         6.5440    5.7260   -0.1030 oh        1 KPG     -0.665300
@<TRIPOS>BOND
     1    1   12 1   
     2    1   13 1   
     3    1   14 1   
     4    1   15 1   
     5    2    3 1   
     6    2   26 1   
     7    2   27 1   
     8    2   28 1   
     9    3    4 1   
    10    3    5 1   
    11    3   16 1   
    12    4   17 1   
    13    5    6 1   
    14    5    7 1   
    15    5   18 1   
    16    6   19 1   
    17    7    8 1   
    18    7    9 1   
    19    7   20 1   
    20    8   21 1   
    21    9   10 2   
    22    9   11 1   
    23   11   12 1   
    24   11   22 1   
    25   11   23 1   
    26   24   27 1   
    27   25   28 1   
@<TRIPOS>SUBSTRUCTURE
     1 KPG         1 TEMP              0 ****  ****    0 ROOT
