@<TRIPOS>MOLECULE
KPH
   24    23     1     0     0
SMALL
bcc


@<TRIPOS>ATOM
      1 O1         -0.2700    0.1820    0.1550 o         1 KPH     -0.945833
      2 P1          1.2180    0.3630   -0.0220 p5        1 KPH      1.203700
      3 O2          1.6690    1.7980   -0.2050 o         1 KPH     -0.945833
      4 C1          2.0070   -0.0940    1.5980 c3        1 KPH     -0.039700
      5 N1          1.9750    1.0460    2.4740 n3        1 KPH     -0.886800
      6 C2          1.2640   -1.3030    2.1180 c3        1 KPH     -0.032400
      7 C3          2.0680   -2.5830    1.9650 c3        1 KPH     -0.076400
      8 C4          1.2390   -3.7930    2.3420 c3        1 KPH     -0.110400
      9 C5          2.0550   -5.0790    2.2320 c3        1 KPH      0.131800
     10 N2          1.3410   -6.3120    2.4920 n3        1 KPH     -0.912800
     11 O3          1.8650   -0.6350   -0.9530 o         1 KPH     -0.945833
     12 H2          3.0550   -0.3830    1.3240 h1        1 KPH      0.004700
     13 H3          1.8020    1.8630    1.9030 hn        1 KPH      0.311800
     14 H4          2.8740    1.1740    2.9070 hn        1 KPH      0.311800
     15 H5          0.3020   -1.3880    1.5340 hc        1 KPH      0.032200
     16 H6          0.9820   -1.2000    3.2030 hc        1 KPH      0.032200
     17 H7          2.9830   -2.5430    2.6130 hc        1 KPH      0.037200
     18 H8          2.4100   -2.6760    0.8990 hc        1 KPH      0.037200
     19 H9          0.8560   -3.6790    3.3900 hc        1 KPH      0.028700
     20 H10         0.3480   -3.8440    1.6630 hc        1 KPH      0.028700
     21 H11         2.9160   -5.0280    2.9570 h1        1 KPH      0.043700
     22 H12         2.4910   -5.1420    1.1950 h1        1 KPH      0.043700
     23 H13         0.8760   -6.2500    3.3790 hn        1 KPH      0.324800
     24 H14         0.6330   -6.4440    1.7940 hn        1 KPH      0.324800
@<TRIPOS>BOND
     1    1    2 1
     2    2    3 1
     3    2    4 1
     4    2   11 1
     5    4    5 1
     6    4    6 1
     7    4   12 1
     8    5   13 1
     9    5   14 1
    10    6    7 1
    11    6   15 1
    12    6   16 1
    13    7    8 1
    14    7   17 1
    15    7   18 1
    16    8    9 1
    17    8   19 1
    18    8   20 1
    19    9   10 1
    20    9   21 1
    21    9   22 1
    22   10   23 1
    23   10   24 1
@<TRIPOS>SUBSTRUCTURE
     1 KPH         1 TEMP              0 ****  ****    0 ROOT
