@<TRIPOS>MOLECULE
molecule
   46    49     1     0     0
SMALL
bcc


@<TRIPOS>ATOM
      1 O27          0.0000     0.0000     0.0000 o          1 KPK      -0.851300
      2 C24          1.2080     0.0000     0.0000 c          1 KPK       0.891600
      3 O26          1.8780     0.0000     1.1640 o          1 KPK      -0.851300
      4 C20          1.9620    -0.0050    -1.3040 c3         1 KPK      -0.177400
      5 C16          0.9690    -0.0100    -2.4680 c3         1 KPK      -0.059400
      6 C12          1.7350    -0.0160    -3.7920 c3         1 KPK       0.015700
      7 S8           0.5590    -0.0220    -5.1680 ss         1 KPK      -0.208300
      8 C3           1.6800    -0.0270    -6.5280 cc         1 KPK       0.462700
      9 N7           2.9860    -0.0320    -6.4270 nd         1 KPK      -0.618100
     10 C5           3.5400    -0.0350    -7.6680 ca         1 KPK       0.106400
     11 C10          4.8580    -0.0420    -8.1300 ca         1 KPK      -0.078000
     12 C15          5.1080    -0.0440    -9.4840 ca         1 KPK      -0.150000
     13 C11          4.0610    -0.0400   -10.3940 ca         1 KPK      -0.131000
     14 C6           2.7520    -0.0350    -9.9530 ca         1 KPK      -0.124000
     15 C2           2.4830    -0.0320    -8.5930 ca         1 KPK      -0.096200
     16 N1           1.3160    -0.0330    -7.8450 na         1 KPK      -0.155300
     17 C4          -0.0520    -0.0350    -8.3690 c3         1 KPK       0.114500
     18 C9          -0.4990     1.3830    -8.6130 cd         1 KPK      -0.122400
     19 C14          0.2260     2.4270    -8.2590 cc         1 KPK      -0.046400
     20 S19         -0.5700     3.9310    -8.6800 ss         1 KPK      -0.099500
     21 C17         -1.9500     3.0860    -9.3680 ca         1 KPK      -0.009100
     22 C21         -3.1160     3.5810    -9.9650 ca         1 KPK      -0.099000
     23 C25         -4.0710     2.7140   -10.4390 ca         1 KPK      -0.120000
     24 C22         -3.8870     1.3430   -10.3290 ca         1 KPK      -0.134000
     25 C18         -2.7610     0.8400    -9.7510 ca         1 KPK      -0.047300
     26 C13         -1.7600     1.7060    -9.2610 ca         1 KPK      -0.064800
     27 C23         -2.5800    -0.6520    -9.6410 c3         1 KPK      -0.055800
     28 H2           2.5850     0.8790    -1.3650 hc         1 KPK       0.032700
     29 H3           2.5850    -0.8900    -1.3580 hc         1 KPK       0.032700
     30 H4           0.3460    -0.8940    -2.4070 hc         1 KPK       0.057200
     31 H5           0.3470     0.8750    -2.4140 hc         1 KPK       0.057200
     32 H6           2.3570    -0.9010    -3.8460 h1         1 KPK       0.071200
     33 H7           2.3580     0.8680    -3.8530 h1         1 KPK       0.071200
     34 H8           5.6810    -0.0450    -7.4260 ha         1 KPK       0.141000
     35 H9           6.1310    -0.0480    -9.8420 ha         1 KPK       0.125000
     36 H10          4.2710    -0.0420   -11.4560 ha         1 KPK       0.124000
     37 H11          1.9380    -0.0320   -10.6680 ha         1 KPK       0.123000
     38 H12         -0.7130    -0.5030    -7.6500 h1         1 KPK       0.076700
     39 H13         -0.0810    -0.5880    -9.3000 h1         1 KPK       0.076700
     40 H14          1.1900     2.3620    -7.7700 h4         1 KPK       0.192000
     41 H15         -3.2650     4.6500   -10.0540 ha         1 KPK       0.132000
     42 H16         -4.9710     3.1020   -10.9000 ha         1 KPK       0.129000
     43 H17         -4.6450     0.6670   -10.7050 ha         1 KPK       0.129000
     44 H18         -2.4410    -0.9230    -8.6020 hc         1 KPK       0.046033
     45 H19         -1.7100    -0.9530   -10.2130 hc         1 KPK       0.046033
     46 H20         -3.4590    -1.1520   -10.0300 hc         1 KPK       0.046033
@<TRIPOS>BOND
     1     5     4 1
     2     5     6 1
     3     4     2 1
     4     6     7 1
     5     2     1 1
     6     2     3 1
     7     9     8 2
     8     9    10 1
     9     7     8 1
    10    11    10 ar
    11    11    12 ar
    12     8    16 1
    13    10    15 ar
    14    12    13 ar
    15    16    15 1
    16    16    17 1
    17    15    14 ar
    18    13    14 ar
    19    17    18 1
    20    19    18 2
    21    19    20 1
    22    18    26 1
    23    20    21 1
    24    26    25 ar
    25    26    21 ar
    26    27    25 1
    27    25    24 ar
    28    21    22 ar
    29    24    23 ar
    30    22    23 ar
    31     4    28 1
    32     4    29 1
    33     5    30 1
    34     5    31 1
    35     6    32 1
    36     6    33 1
    37    11    34 1
    38    12    35 1
    39    13    36 1
    40    14    37 1
    41    17    38 1
    42    17    39 1
    43    19    40 1
    44    22    41 1
    45    23    42 1
    46    24    43 1
    47    27    44 1
    48    27    45 1
    49    27    46 1
@<TRIPOS>SUBSTRUCTURE
     1 KPK         1 TEMP              0 ****  ****    0 ROOT
