@<TRIPOS>MOLECULE
KPK
   46    49     1     0     0
SMALL
bcc


@<TRIPOS>ATOM
      1 O27        -0.3380   -1.0770   -0.3210 o         1 KPK     -0.844800
      2 C24         0.6960   -0.3840   -0.0940 c         1 KPK      0.910600
      3 O26         0.9810    0.1230    1.0270 o         1 KPK     -0.844800
      4 C20         1.6920   -0.1540   -1.2490 c3        1 KPK     -0.193400
      5 C16         0.9670    0.0170   -2.5630 c3        1 KPK     -0.072400
      6 C12         1.9330    0.0090   -3.7230 c3        1 KPK      0.000700
      7 S8          0.9050    0.2210   -5.1580 ss        1 KPK     -0.148300
      8 C3          1.9640    0.1500   -6.4770 cc        1 KPK      0.422700
      9 N7          3.3170    0.1350   -6.4400 nd        1 KPK     -0.594100
     10 C5          3.7390    0.0540   -7.7790 ca        1 KPK      0.086400
     11 C10         5.0210   -0.0020   -8.3400 ca        1 KPK     -0.084000
     12 C15         5.1330   -0.0810   -9.7220 ca        1 KPK     -0.157000
     13 C11         4.0040   -0.1090  -10.5560 ca        1 KPK     -0.133000
     14 C6          2.7140   -0.0580  -10.0410 ca        1 KPK     -0.130000
     15 C2          2.5770    0.0240   -8.6530 ca        1 KPK     -0.075200
     16 N1          1.4590    0.0590   -7.8060 na        1 KPK     -0.164300
     17 C4          0.0860    0.1580   -8.1970 c3        1 KPK      0.108500
     18 C9         -0.3960    1.5020   -8.6340 cc        1 KPK     -0.109400
     19 C14         0.3040    2.6730   -8.5220 cd        1 KPK     -0.131400
     20 S19        -0.5290    4.0050   -9.1100 ss        1 KPK      0.029500
     21 C17        -1.8790    3.0930   -9.5490 ca        1 KPK     -0.078100
     22 C21        -3.0570    3.5560  -10.1430 ca        1 KPK     -0.102000
     23 C25        -4.0660    2.6510  -10.4230 ca        1 KPK     -0.123000
     24 C22        -3.9090    1.2930  -10.1100 ca        1 KPK     -0.139000
     25 C18        -2.7450    0.8070   -9.5170 ca        1 KPK     -0.037300
     26 C13        -1.7020    1.7130   -9.2340 ca        1 KPK     -0.057800
     27 C23        -2.6560   -0.6380   -9.2040 c3        1 KPK     -0.059800
     28 H2          2.3690   -1.0440   -1.2950 hc        1 KPK      0.025700
     29 H3          2.3180    0.7450   -1.0260 hc        1 KPK      0.025700
     30 H4          0.2170   -0.8160   -2.6620 hc        1 KPK      0.063200
     31 H5          0.3950    0.9820   -2.5460 hc        1 KPK      0.063200
     32 H6          2.6740    0.8380   -3.6420 h1        1 KPK      0.073700
     33 H7          2.4930   -0.9540   -3.7770 h1        1 KPK      0.073700
     34 H8          5.9100    0.0150   -7.6950 ha        1 KPK      0.143000
     35 H9          6.1320   -0.1250  -10.1800 ha        1 KPK      0.122000
     36 H10         4.1440   -0.1720  -11.6450 ha        1 KPK      0.121000
     37 H11         1.8360   -0.0790  -10.6990 ha        1 KPK      0.132000
     38 H12        -0.5400   -0.1720   -7.3100 h1        1 KPK      0.078700
     39 H13        -0.0700   -0.5690   -9.0480 h1        1 KPK      0.078700
     40 H14         1.3040    2.7780   -8.0950 h4        1 KPK      0.187000
     41 H15        -3.1740    4.6230  -10.3770 ha        1 KPK      0.133000
     42 H16        -5.0020    2.9940  -10.8880 ha        1 KPK      0.128000
     43 H17        -4.7320    0.5980  -10.3350 ha        1 KPK      0.129000
     44 H18        -2.3720   -0.7960   -8.1340 hc        1 KPK      0.048367
     45 H19        -1.8950   -1.1340   -9.8570 hc        1 KPK      0.048367
     46 H20        -3.6380   -1.1460   -9.3760 hc        1 KPK      0.048367
@<TRIPOS>BOND
     1    1    2 1   
     2    2    3 1   
     3    2    4 1   
     4    4    5 1   
     5    4   28 1   
     6    4   29 1   
     7    5    6 1   
     8    5   30 1   
     9    5   31 1   
    10    6    7 1   
    11    6   32 1   
    12    6   33 1   
    13    7    8 1   
    14    8    9 2   
    15    8   16 1   
    16    9   10 1   
    17   10   11 ar  
    18   10   15 ar  
    19   11   12 ar  
    20   11   34 1   
    21   12   13 ar  
    22   12   35 1   
    23   13   14 ar  
    24   13   36 1   
    25   14   15 ar  
    26   14   37 1   
    27   15   16 1   
    28   16   17 1   
    29   17   18 1   
    30   17   38 1   
    31   17   39 1   
    32   18   19 2   
    33   18   26 1   
    34   19   20 1   
    35   19   40 1   
    36   20   21 1   
    37   21   22 ar  
    38   21   26 ar  
    39   22   23 ar  
    40   22   41 1   
    41   23   24 ar  
    42   23   42 1   
    43   24   25 ar  
    44   24   43 1   
    45   25   26 ar  
    46   25   27 1   
    47   27   44 1   
    48   27   45 1   
    49   27   46 1   
@<TRIPOS>SUBSTRUCTURE
     1 KPK         1 TEMP              0 ****  ****    0 ROOT
