@<TRIPOS>MOLECULE
KPL
   19    18     1     0     0
SMALL
bcc


@<TRIPOS>ATOM
      1 O2          0.0130   -0.4100    0.0670 o         1 KPL     -0.594100
      2 C5          1.2320   -0.2060    0.0320 c         1 KPL      0.476100
      3 C6          2.1240   -0.1380    1.2850 c         1 KPL      0.861600
      4 O4          2.6540   -1.2140    1.6720 o         1 KPL     -0.812800
      5 O3          2.2800    0.9930    1.8180 o         1 KPL     -0.812800
      6 C2          1.9470   -0.0020   -1.3070 c3        1 KPL     -0.157000
      7 C3          2.9960   -1.0900   -1.4680 c3        1 KPL     -0.076100
      8 C1          2.6050    1.3680   -1.3050 c3        1 KPL     -0.076100
      9 C4          0.9270   -0.0890   -2.4460 c3        1 KPL      0.136400
     10 O1          1.5960    0.1000   -3.6870 oh        1 KPL     -0.609800
     11 H31         2.5050   -2.0890   -1.5520 hc        1 KPL      0.039700
     12 H32         3.5940   -0.9050   -2.3930 hc        1 KPL      0.039700
     13 H33         3.6700   -1.1020   -0.5760 hc        1 KPL      0.039700
     14 H11         3.2640    1.4700   -0.4070 hc        1 KPL      0.039700
     15 H12         1.8280    2.1680   -1.2640 hc        1 KPL      0.039700
     16 H13         3.2080    1.5000   -2.2350 hc        1 KPL      0.039700
     17 H41         0.1440    0.7060   -2.3130 h1        1 KPL      0.024700
     18 H42         0.4300   -1.0950   -2.4330 h1        1 KPL      0.024700
     19 HO1         0.9140    0.0360   -4.3640 ho        1 KPL      0.378000
@<TRIPOS>BOND
     1    1    2 2   
     2    2    3 1   
     3    2    6 1   
     4    3    4 1   
     5    3    5 1   
     6    6    7 1   
     7    6    8 1   
     8    6    9 1   
     9    7   11 1   
    10    7   12 1   
    11    7   13 1   
    12    8   14 1   
    13    8   15 1   
    14    8   16 1   
    15    9   10 1   
    16    9   17 1   
    17    9   18 1   
    18   10   19 1   
@<TRIPOS>SUBSTRUCTURE
     1 KPL         1 TEMP              0 ****  ****    0 ROOT
