@<TRIPOS>MOLECULE
molecule
   19    18     1     0     0
SMALL
bcc


@<TRIPOS>ATOM
      1 O2           0.0000     0.0000     0.0000 o          1 KPL      -0.553100
      2 C5           1.2080     0.0000     0.0000 c          1 KPL       0.485100
      3 C6           1.9530     0.0000     1.2910 c          1 KPL       0.810600
      4 O4           3.1650    -0.0000     1.2910 o          1 KPL      -0.813300
      5 O3           1.2800     0.0000     2.4560 o          1 KPL      -0.813300
      6 C2           1.9600    -0.0000    -1.3050 c3         1 KPL      -0.158000
      7 C3           2.8390    -1.2490    -1.3850 c3         1 KPL      -0.072100
      8 C1           2.8390     1.2490    -1.3850 c3         1 KPL      -0.072100
      9 C4           0.9670    -0.0000    -2.4670 c3         1 KPL       0.146400
     10 O1           1.6810    -0.0000    -3.7050 oh         1 KPL      -0.622800
     11 H31          3.2300    -1.3510    -2.3910 hc         1 KPL       0.039033
     12 H32          2.2490    -2.1230    -1.1360 hc         1 KPL       0.039033
     13 H33          3.6620    -1.1580    -0.6860 hc         1 KPL       0.039033
     14 H11          3.6620     1.1580    -0.6860 hc         1 KPL       0.039033
     15 H12          2.2490     2.1230    -1.1360 hc         1 KPL       0.039033
     16 H13          3.2300     1.3510    -2.3910 hc         1 KPL       0.039033
     17 H41          0.3440     0.8840    -2.4090 h1         1 KPL       0.023700
     18 H42          0.3440    -0.8840    -2.4090 h1         1 KPL       0.023700
     19 HO1          1.0690     0.0000    -4.4220 ho         1 KPL       0.381000
@<TRIPOS>BOND
     1     1     2 2
     2     2     3 1
     3     2     6 1
     4     3     4 1
     5     3     5 1
     6     6     7 1
     7     6     8 1
     8     6     9 1
     9     7    11 1
    10     7    12 1
    11     7    13 1
    12     8    14 1
    13     8    15 1
    14     8    16 1
    15     9    10 1
    16     9    17 1
    17     9    18 1
    18    10    19 1
@<TRIPOS>SUBSTRUCTURE
     1 KPL         1 TEMP              0 ****  ****    0 ROOT
