@<TRIPOS>MOLECULE
molecule
   21    20     1     0     0
SMALL
bcc


@<TRIPOS>ATOM
      1 O3P          0.0000     0.0000     0.0000 o          1 KPR      -0.834500
      2 P            1.6100     0.0000     0.0000 p5         1 KPR       1.020900
      3 O1P          2.1470     0.0000     1.5180 o          1 KPR      -0.834500
      4 O2P          2.1030     1.2080    -0.6980 o          1 KPR      -0.834500
      5 O5           2.1470    -1.3150    -0.7580 os         1 KPR      -0.326500
      6 C5           1.8740    -1.4180    -2.0720 c2         1 KPR       0.352100
      7 C4           2.2950    -2.4960    -2.7680 ce         1 KPR      -0.509200
      8 C3           2.0090    -2.6020    -4.1400 c          1 KPR       0.563300
      9 O3           1.3830    -1.7250    -4.7010 o          1 KPR      -0.641100
     10 C2           2.4800    -3.8050    -4.9170 c3         1 KPR      -0.005500
     11 N2           1.7700    -3.8660    -6.2020 nz         1 KPR      -0.796600
     12 C1           3.9840    -3.6920    -5.1690 c3         1 KPR      -0.102100
     13 H3           1.3150    -0.6350    -2.5720 h4         1 KPR       0.173000
     14 H4           2.8530    -3.2780    -2.2680 ha         1 KPR       0.130000
     15 H5           2.2750    -4.7040    -4.3480 hx         1 KPR       0.110700
     16 H6           2.1550    -3.1860    -6.8280 hn         1 KPR       0.445467
     17 H7           1.8740    -4.7800    -6.5970 hn         1 KPR       0.445467
     18 H9           4.3220    -2.7010    -4.8940 hc         1 KPR       0.065700
     19 H10          4.5070    -4.4300    -4.5730 hc         1 KPR       0.065700
     20 H11          4.1880    -3.8650    -6.2190 hc         1 KPR       0.065700
     21 H23          0.8000    -3.6690    -6.0570 hn         1 KPR       0.445467
@<TRIPOS>BOND
     1    12    10 1
     2     9     8 2
     3     8    10 1
     4     8     7 1
     5    11    10 1
     6     7     6 2
     7     6     5 1
     8     5     2 1
     9     3     2 1
    10     2     4 1
    11     2     1 1
    12     6    13 1
    13     7    14 1
    14    10    15 1
    15    11    16 1
    16    11    17 1
    17    12    18 1
    18    12    19 1
    19    12    20 1
    20    21    11 1
@<TRIPOS>SUBSTRUCTURE
     1 KPR         1 TEMP              0 ****  ****    0 ROOT
