@<TRIPOS>MOLECULE
KPS
   34    34     1     0     0
SMALL
bcc


@<TRIPOS>ATOM
      1 O3T          0.0000     0.0000     0.0000 o          1 KPS      -0.730833
      2 P            1.6100     0.0000     0.0000 p5         1 KPS       0.690900
      3 O1P          2.1030     0.0000     1.3960 o          1 KPS      -0.730833
      4 O2P          2.1460    -1.3150    -0.7580 o          1 KPS      -0.730833
      5 O5'          2.1470     1.3140    -0.7590 os         1 KPS      -0.482200
      6 C5'          3.5320     1.6560    -0.8360 c3         1 KPS       0.262400
      7 C4'          3.6930     2.9580    -1.6250 c3         1 KPS       0.145100
      8 O4'          3.0780     4.0290    -0.9050 oh         1 KPS      -0.600800
      9 C3'          5.1800     3.2600    -1.8150 c3         1 KPS       0.167100
     10 O3'          5.7950     2.1880    -2.5330 oh         1 KPS      -0.575800
     11 C2'          5.3410     4.5620    -2.6020 c3         1 KPS       0.172100
     12 O2'          4.7260     5.6320    -1.8840 oh         1 KPS      -0.571800
     13 C1'          6.8290     4.8630    -2.7930 c3         1 KPS       0.031800
     14 C5           6.9870     6.0760    -3.6720 cc         1 KPS      -0.250400
     15 C6           7.1420     7.3010    -3.1260 cd         1 KPS      -0.174400
     16 N1           7.2850     8.3920    -3.9390 ns         1 KPS       0.020900
     17 C2           7.2720     8.2560    -5.2770 c          1 KPS       0.572500
     18 O2           7.4020     9.2390    -5.9810 o          1 KPS      -0.752500
     19 N3           7.1200     7.0460    -5.8480 ns         1 KPS      -0.135500
     20 C4           6.9820     5.9460    -5.0820 c          1 KPS       0.602700
     21 O4           6.8450     4.8510    -5.5970 o          1 KPS      -0.653500
     22 H3           4.0730     0.8620    -1.3360 h1         1 KPS      -0.020300
     23 H4           3.9280     1.7880     0.1640 h1         1 KPS      -0.020300
     24 H5           3.2190     2.8550    -2.5930 h1         1 KPS       0.001700
     25 H6           2.1690     4.0890    -1.1480 ho         1 KPS       0.394000
     26 H7           5.6540     3.3640    -0.8460 h1         1 KPS       0.009700
     27 H8           6.4560     1.7860    -1.9930 ho         1 KPS       0.383000
     28 H9           4.8670     4.4580    -3.5710 h1         1 KPS       0.016700
     29 H10          4.0860     6.0530    -2.4340 ho         1 KPS       0.377000
     30 H11          7.3120     4.0130    -3.2600 hc         1 KPS       0.031700
     31 H12          7.2850     5.0530    -1.8290 hc         1 KPS       0.031700
     32 H14          7.1530     7.4190    -2.0490 h4         1 KPS       0.144000
     33 H15          7.1160     6.9630    -6.8450 hn         1 KPS       0.194500
     34 H13          7.4000     9.3010    -3.5340 hn         1 KPS       0.176500
@<TRIPOS>BOND
     1     1     2 1   
     2     2     3 1   
     3     2     4 1   
     4     2     5 1   
     5     5     6 1   
     6     6     7 1   
     7     6    22 1   
     8     6    23 1   
     9     7     8 1   
    10     7     9 1   
    11     7    24 1   
    12     8    25 1   
    13     9    10 1   
    14     9    11 1   
    15     9    26 1   
    16    10    27 1   
    17    11    12 1   
    18    11    13 1   
    19    11    28 1   
    20    12    29 1   
    21    13    14 1   
    22    13    30 1   
    23    13    31 1   
    24    14    15 2   
    25    14    20 1   
    26    15    16 1   
    27    15    32 1   
    28    16    17 1   
    29    16    34 1   
    30    17    18 2   
    31    17    19 1   
    32    19    20 1   
    33    19    33 1   
    34    20    21 2   
@<TRIPOS>SUBSTRUCTURE
     1 KPS         1 TEMP              0 ****  ****    0 ROOT
