@<TRIPOS>MOLECULE
molecule
   34    34     1     0     0
SMALL
bcc


@<TRIPOS>ATOM
      1 O3T          0.0000     0.0000     0.0000 o          1 KPS      -0.909833
      2 P            1.6100     0.0000     0.0000 p5         1 KPS       1.180900
      3 O1P          2.1030     0.0000     1.3960 o          1 KPS      -0.909833
      4 O2P          2.1460    -1.3150    -0.7580 o          1 KPS      -0.909833
      5 O5'          2.1470     1.3140    -0.7590 os         1 KPS      -0.580200
      6 C5'          3.5320     1.6560    -0.8360 c3         1 KPS       0.203400
      7 C4'          3.6930     2.9580    -1.6250 c3         1 KPS       0.125100
      8 O4'          3.0780     4.0290    -0.9050 oh         1 KPS      -0.616800
      9 C3'          5.1800     3.2600    -1.8150 c3         1 KPS       0.138100
     10 O3'          5.7950     2.1880    -2.5330 oh         1 KPS      -0.596800
     11 C2'          5.3410     4.5620    -2.6020 c3         1 KPS       0.139100
     12 O2'          4.7260     5.6320    -1.8840 oh         1 KPS      -0.589800
     13 C1'          6.8290     4.8630    -2.7930 c3         1 KPS      -0.030200
     14 C5           6.9870     6.0760    -3.6720 cc         1 KPS      -0.248400
     15 C6           7.1420     7.3010    -3.1260 cd         1 KPS       0.009600
     16 N1           7.2850     8.3920    -3.9390 ns         1 KPS      -0.458100
     17 C2           7.2720     8.2560    -5.2770 c          1 KPS       0.807500
     18 O2           7.4020     9.2390    -5.9810 o          1 KPS      -0.684500
     19 N3           7.1200     7.0460    -5.8480 ns         1 KPS      -0.564500
     20 C4           6.9820     5.9460    -5.0820 c          1 KPS       0.696700
     21 O4           6.8450     4.8510    -5.5970 o          1 KPS      -0.599500
     22 H3           4.0730     0.8620    -1.3360 h1         1 KPS       0.021700
     23 H4           3.9280     1.7880     0.1640 h1         1 KPS       0.021700
     24 H5           3.2190     2.8550    -2.5930 h1         1 KPS       0.036700
     25 H6           2.1690     4.0890    -1.1480 ho         1 KPS       0.411000
     26 H7           5.6540     3.3640    -0.8460 h1         1 KPS       0.046700
     27 H8           6.4560     1.7860    -1.9930 ho         1 KPS       0.400000
     28 H9           4.8670     4.4580    -3.5710 h1         1 KPS       0.051700
     29 H10          4.0860     6.0530    -2.4340 ho         1 KPS       0.394000
     30 H11          7.3120     4.0130    -3.2600 hc         1 KPS       0.066200
     31 H12          7.2850     5.0530    -1.8290 hc         1 KPS       0.066200
     32 H14          7.1530     7.4190    -2.0490 h4         1 KPS       0.177000
     33 H15          7.1160     6.9630    -6.8450 hn         1 KPS       0.355500
     34 H13          7.4000     9.3010    -3.5340 hn         1 KPS       0.349500
@<TRIPOS>BOND
     1    21    20 2
     2    19    20 1
     3    19    17 1
     4    20    14 1
     5    18    17 2
     6    12    11 1
     7    17    16 1
     8     3     2 1
     9    14    15 2
    10    14    13 1
    11    16    15 1
    12     7     6 1
    13     7     8 1
    14     7     9 1
    15     6     5 1
    16     4     2 1
    17    11    13 1
    18    11     9 1
    19     2     5 1
    20     2     1 1
    21     9    10 1
    22     6    22 1
    23     6    23 1
    24     7    24 1
    25     8    25 1
    26     9    26 1
    27    10    27 1
    28    11    28 1
    29    12    29 1
    30    13    30 1
    31    13    31 1
    32    15    32 1
    33    19    33 1
    34    16    34 1
@<TRIPOS>SUBSTRUCTURE
     1 KPS         1 TEMP              0 ****  ****    0 ROOT
