@<TRIPOS>MOLECULE
KPT
   38    43     1     0     0
SMALL
bcc


@<TRIPOS>ATOM
      1 C36         0.0620    0.2250   -0.1320 c3        1 KPT      0.324200
      2 O4          1.4610   -0.1560   -0.0550 os        1 KPT     -0.304900
      3 O3         -0.3860    0.4790    1.2330 os        1 KPT     -0.325900
      4 C18         0.7030    0.2570    2.0530 ca        1 KPT      0.094100
      5 C13         0.7820    0.3700    3.4460 ca        1 KPT     -0.085000
      6 C14        -0.3050    0.7360    4.2780 ca        1 KPT      0.054700
      7 C17         1.8160   -0.1250    1.2830 ca        1 KPT      0.074100
      8 C16         3.0570   -0.4150    1.8560 ca        1 KPT     -0.030000
      9 C15         3.1550   -0.3090    3.2380 ca        1 KPT     -0.124000
     10 C12         2.0560    0.0760    4.0390 ca        1 KPT      0.013000
     11 C11         2.1500    0.1910    5.4530 ca        1 KPT     -0.103000
     12 C10         1.0690    0.5840    6.2290 ca        1 KPT      0.037700
     13 N          -0.1700    0.8400    5.6110 na        1 KPT      0.026900
     14 C9         -1.3180    1.2090    6.4470 c3        1 KPT     -0.000700
     15 C8         -1.3150    0.5050    7.8000 c3        1 KPT     -0.056100
     16 C6          1.1670    0.7260    7.6850 ca        1 KPT     -0.093000
     17 C5          0.0030    0.6550    8.4710 ca        1 KPT     -0.053300
     18 C4          0.0480    0.7230    9.8760 ca        1 KPT     -0.112000
     19 C7          2.4400    0.9220    8.2750 ca        1 KPT     -0.083000
     20 C3          2.4730    0.9910    9.6490 ca        1 KPT      0.067100
     21 C2          1.2960    0.8850   10.4440 ca        1 KPT      0.110100
     22 O2          1.6340    0.9900   11.7780 os        1 KPT     -0.311900
     23 O1          3.5710    1.1690   10.4770 os        1 KPT     -0.318900
     24 C1          3.0750    1.1700   11.8410 c3        1 KPT      0.320200
     25 H1         -0.5230   -0.6360   -0.5400 h2        1 KPT      0.101700
     26 H21        -0.0210    1.1760   -0.7130 h2        1 KPT      0.101700
     27 H2         -1.3000    0.9450    3.8250 h4        1 KPT      0.210000
     28 H3          3.9140   -0.7140    1.2310 ha        1 KPT      0.190000
     29 H4          4.1170   -0.5290    3.7300 ha        1 KPT      0.171000
     30 H5          3.1100   -0.0520    5.9400 ha        1 KPT      0.187000
     31 H6         -1.2710    2.3280    6.5990 h1        1 KPT      0.097700
     32 H7         -2.2670    0.9570    5.8920 h1        1 KPT      0.097700
     33 H8         -2.1340    0.9620    8.4200 hc        1 KPT      0.094200
     34 H9         -1.5540   -0.5870    7.6800 hc        1 KPT      0.094200
     35 H10        -0.8630    0.6530   10.4860 ha        1 KPT      0.177000
     36 H11         3.3560    1.0300    7.6790 ha        1 KPT      0.166000
     37 H12         3.5180    0.2980   12.3830 h2        1 KPT      0.095700
     38 H14         3.2880    2.1670   12.2980 h2        1 KPT      0.095700
@<TRIPOS>BOND
     1    1    2 1   
     2    1    3 1   
     3    1   25 1   
     4    1   26 1   
     5    2    7 1   
     6    3    4 1   
     7    4    5 ar  
     8    4    7 ar  
     9    5    6 ar  
    10    5   10 ar  
    11    6   13 2   
    12    6   27 1   
    13    7    8 ar  
    14    8    9 ar  
    15    8   28 1   
    16    9   10 ar  
    17    9   29 1   
    18   10   11 ar  
    19   11   12 ar  
    20   11   30 1   
    21   12   13 1   
    22   12   16 1   
    23   13   14 1   
    24   14   15 1   
    25   14   31 1   
    26   14   32 1   
    27   15   17 1   
    28   15   33 1   
    29   15   34 1   
    30   16   17 ar  
    31   16   19 ar  
    32   17   18 ar  
    33   18   21 ar  
    34   18   35 1   
    35   19   20 ar  
    36   19   36 1   
    37   20   21 ar  
    38   20   23 1   
    39   21   22 1   
    40   22   24 1   
    41   23   24 1   
    42   24   37 1   
    43   24   38 1   
@<TRIPOS>SUBSTRUCTURE
     1 KPT         1 TEMP              0 ****  ****    0 ROOT
