@<TRIPOS>MOLECULE
molecule
   38    43     1     0     0
SMALL
bcc


@<TRIPOS>ATOM
      1 C36          0.0000     0.0000     0.0000 c3         1 KPT       0.333200
      2 O4           1.4420     0.0000     0.0000 os         1 KPT      -0.292900
      3 O3          -0.3490     0.6070     1.2610 os         1 KPT      -0.312900
      4 C18          0.7010     0.3740     2.0780 ca         1 KPT       0.075100
      5 C13          0.8040     0.4560     3.4780 ca         1 KPT      -0.071000
      6 C14         -0.2550     0.8310     4.3050 ca         1 KPT       0.023700
      7 C17          1.8050     0.0000     1.3060 ca         1 KPT       0.075100
      8 C16          3.0410    -0.3040     1.8880 ca         1 KPT      -0.032000
      9 C15          3.1570    -0.2300     3.2480 ca         1 KPT      -0.123000
     10 C12          2.0670     0.1380     4.0580 ca         1 KPT       0.010000
     11 C11          2.1700     0.2040     5.4580 ca         1 KPT      -0.092000
     12 C10          1.0600     0.5700     6.1980 ca         1 KPT       0.021700
     13 N           -0.0990     0.8960     5.6130 na         1 KPT       0.066900
     14 C9          -1.2320     1.3710     6.4140 c3         1 KPT       0.000300
     15 C8          -1.3310     0.6090     7.7310 c3         1 KPT      -0.049100
     16 C6           1.1690     0.6100     7.6800 ca         1 KPT      -0.092000
     17 C5           0.0010     0.6450     8.4400 ca         1 KPT      -0.068300
     18 C4           0.0380     0.7010     9.8240 ca         1 KPT      -0.103000
     19 C7           2.4310     0.6250     8.2810 ca         1 KPT      -0.084000
     20 C3           2.4710     0.6840     9.6660 ca         1 KPT       0.063100
     21 C2           1.2900     0.7160    10.4280 ca         1 KPT       0.099100
     22 O2           1.6210     0.7740    11.7380 os         1 KPT      -0.299900
     23 O1           3.5320     0.7040    10.5050 os         1 KPT      -0.305900
     24 C1           3.0070     1.1720    11.7700 c3         1 KPT       0.328200
     25 H1          -0.3780     0.5940    -0.8230 h2         1 KPT       0.095200
     26 H21         -0.3780    -1.0140    -0.0490 h2         1 KPT       0.095200
     27 H2          -1.2160     1.0730     3.8680 h4         1 KPT       0.206000
     28 H3           3.9290    -0.3680     1.2710 ha         1 KPT       0.183000
     29 H4           4.1080    -0.4600     3.7120 ha         1 KPT       0.170000
     30 H5           3.0450    -0.1960     5.9560 ha         1 KPT       0.192000
     31 H6          -1.0990     2.4250     6.6240 h1         1 KPT       0.096200
     32 H7          -2.1480     1.2280     5.8530 h1         1 KPT       0.096200
     33 H8          -1.6030    -0.4200     7.5310 hc         1 KPT       0.090700
     34 H9          -2.0840     1.0710     8.3580 hc         1 KPT       0.090700
     35 H10         -0.8380     0.4330    10.4010 ha         1 KPT       0.172000
     36 H11          3.3040     0.9030     7.7020 ha         1 KPT       0.162000
     37 H12          3.5200     0.6890    12.5940 h2         1 KPT       0.091200
     38 H14          3.0910     2.2490    11.8400 h2         1 KPT       0.091200
@<TRIPOS>BOND
     1     2     1 1
     2     3     1 1
     3     4     3 1
     4     5     6 ar
     5     5     4 ar
     6     7     4 ar
     7     7     2 1
     8     8     7 ar
     9     9    10 ar
    10     9     8 ar
    11    10     5 ar
    12    11    12 ar
    13    11    10 ar
    14    12    13 1
    15    13    14 1
    16    13     6 2
    17    15    14 1
    18    16    17 ar
    19    16    12 1
    20    17    15 1
    21    18    17 ar
    22    19    16 ar
    23    20    21 ar
    24    20    19 ar
    25    21    18 ar
    26    22    21 1
    27    23    20 1
    28    24    23 1
    29    24    22 1
    30     1    25 1
    31     1    26 1
    32     6    27 1
    33     8    28 1
    34     9    29 1
    35    11    30 1
    36    14    31 1
    37    14    32 1
    38    15    33 1
    39    15    34 1
    40    18    35 1
    41    19    36 1
    42    24    37 1
    43    24    38 1
@<TRIPOS>SUBSTRUCTURE
     1 KPT         1 TEMP              0 ****  ****    0 ROOT
