@<TRIPOS>MOLECULE
molecule
   25    25     1     0     0
SMALL
bcc


@<TRIPOS>ATOM
      1 C1           0.0000     0.0000     0.0000 ca         1 KPV      -0.062300
      2 C2           1.3820     0.0000     0.0000 ca         1 KPV      -0.126000
      3 C3           2.0740     0.0000     1.1970 ca         1 KPV      -0.131000
      4 C4           1.3830     0.0010     2.3940 ca         1 KPV      -0.145000
      5 C5           0.0010     0.0020     2.3950 ca         1 KPV      -0.131000
      6 C6          -0.6910    -0.0000     1.1980 ca         1 KPV      -0.126000
      7 C7          -0.7540     0.0060    -1.3040 c3         1 KPV      -0.044100
      8 C8          -1.0030     1.4510    -1.7420 c3         1 KPV      -0.071400
      9 C9          -1.7680     1.4570    -3.0670 c3         1 KPV      -0.189400
     10 C10         -2.0140     2.8800    -3.4990 c          1 KPV       0.473100
     11 C11         -2.7460     3.1580    -4.7670 c          1 KPV       0.805600
     12 O1          -3.1440     2.2390    -5.4520 o          1 KPV      -0.815300
     13 O2          -2.9650     4.4290    -5.1520 o          1 KPV      -0.815300
     14 O3          -1.6180     3.7940    -2.8170 o          1 KPV      -0.549100
     15 H2           1.9230    -0.0000    -0.9380 ha         1 KPV       0.131000
     16 H3           3.1570    -0.0000     1.1960 ha         1 KPV       0.120000
     17 H4           1.9260     0.0020     3.3320 ha         1 KPV       0.117000
     18 H5          -0.5400     0.0020     3.3330 ha         1 KPV       0.120000
     19 H6          -1.7740    -0.0000     1.1990 ha         1 KPV       0.131000
     20 H71         -0.1710    -0.5050    -2.0610 hc         1 KPV       0.043700
     21 H72         -1.7030    -0.5010    -1.1760 hc         1 KPV       0.043700
     22 H81         -1.5870     1.9620    -0.9860 hc         1 KPV       0.049700
     23 H82         -0.0550     1.9580    -1.8710 hc         1 KPV       0.049700
     24 H91         -2.7170     0.9500    -2.9390 hc         1 KPV       0.060700
     25 H92         -1.1850     0.9460    -3.8230 hc         1 KPV       0.060700
@<TRIPOS>BOND
     1     1     6 ar
     2     1     2 ar
     3     1     7 1
     4     2     3 ar
     5     2    15 1
     6     3     4 ar
     7     3    16 1
     8     4     5 ar
     9     4    17 1
    10     5     6 ar
    11     5    18 1
    12     6    19 1
    13     7     8 1
    14     7    20 1
    15     7    21 1
    16     8     9 1
    17     8    22 1
    18     8    23 1
    19     9    10 1
    20     9    24 1
    21     9    25 1
    22    10    11 1
    23    10    14 2
    24    11    12 1
    25    11    13 1
@<TRIPOS>SUBSTRUCTURE
     1 KPV         1 TEMP              0 ****  ****    0 ROOT
