@<TRIPOS>MOLECULE
KPV
   25    25     1     0     0
SMALL
bcc


@<TRIPOS>ATOM
      1 C1          0.2020    0.0830   -0.1060 ca        1 KPV     -0.057300
      2 C2          1.5890   -0.0390    0.0300 ca        1 KPV     -0.129500
      3 C3          2.1670   -0.1530    1.2940 ca        1 KPV     -0.133500
      4 C4          1.3650   -0.1470    2.4340 ca        1 KPV     -0.147000
      5 C5         -0.0180   -0.0240    2.3060 ca        1 KPV     -0.133500
      6 C6         -0.5980    0.0900    1.0450 ca        1 KPV     -0.129500
      7 C7         -0.4230    0.1900   -1.4530 c3        1 KPV     -0.044100
      8 C8         -1.0620    1.5460   -1.6870 c3        1 KPV     -0.068400
      9 C9         -1.7250    1.6060   -3.0430 c3        1 KPV     -0.198400
     10 C10        -2.4270    2.9120   -3.3180 c         1 KPV      0.468100
     11 C11        -3.0900    2.9620   -4.7040 c         1 KPV      0.854600
     12 O1         -4.2740    2.5400   -4.7870 o         1 KPV     -0.815800
     13 O2         -2.3840    3.3760   -5.6620 o         1 KPV     -0.815800
     14 O3         -2.4510    3.8290   -2.4890 o         1 KPV     -0.592100
     15 H2          2.2270   -0.0390   -0.8670 ha        1 KPV      0.134000
     16 H3          3.2590   -0.2460    1.3900 ha        1 KPV      0.121000
     17 H4          1.8210   -0.2360    3.4300 ha        1 KPV      0.119000
     18 H5         -0.6540   -0.0130    3.2030 ha        1 KPV      0.121000
     19 H6         -1.6890    0.1960    0.9440 ha        1 KPV      0.134000
     20 H71        -1.2070   -0.6090   -1.5550 hc        1 KPV      0.044700
     21 H72         0.3460    0.0020   -2.2500 hc        1 KPV      0.044700
     22 H81        -0.2870    2.3530   -1.6150 hc        1 KPV      0.048200
     23 H82        -1.8230    1.7540   -0.8900 hc        1 KPV      0.048200
     24 H91        -2.4900    0.7910   -3.1410 hc        1 KPV      0.063200
     25 H92        -0.9670    1.4560   -3.8560 hc        1 KPV      0.063200
@<TRIPOS>BOND
     1    1    2 ar  
     2    1    6 ar  
     3    1    7 1   
     4    2    3 ar  
     5    2   15 1   
     6    3    4 ar  
     7    3   16 1   
     8    4    5 ar  
     9    4   17 1   
    10    5    6 ar  
    11    5   18 1   
    12    6   19 1   
    13    7    8 1   
    14    7   20 1   
    15    7   21 1   
    16    8    9 1   
    17    8   22 1   
    18    8   23 1   
    19    9   10 1   
    20    9   24 1   
    21    9   25 1   
    22   10   11 1   
    23   10   14 2   
    24   11   12 1   
    25   11   13 1   
@<TRIPOS>SUBSTRUCTURE
     1 KPV         1 TEMP              0 ****  ****    0 ROOT
