@<TRIPOS>MOLECULE
KQ7
   77    81     1     0     0
SMALL
bcc


@<TRIPOS>ATOM
      1 C1           0.0000     0.0000     0.0000 c3         1 KQ7       0.100800
      2 N2           1.4700     0.0000     0.0000 nh         1 KQ7      -0.463300
      3 C3           1.9920     0.0000     1.3740 c3         1 KQ7       0.100800
      4 C4           1.4660     1.2350     2.1130 c3         1 KQ7       0.211400
      5 O5           0.0370     1.2340     2.0760 os         1 KQ7      -0.411600
      6 C6          -0.5050     1.2330     0.7530 c3         1 KQ7       0.211400
      7 C7           1.9680    -1.0780    -0.7220 ca         1 KQ7       0.481200
      8 N8           1.1290    -1.9290    -1.2910 nb         1 KQ7      -0.612000
      9 C9           1.5530    -2.9670    -1.9860 ca         1 KQ7       0.429200
     10 C10          2.9000    -3.2110    -2.1500 ca         1 KQ7      -0.240300
     11 C11          3.8280    -2.3390    -1.5670 ca         1 KQ7      -0.102600
     12 C12          3.3440    -1.2480    -0.8440 ca         1 KQ7      -0.176300
     13 C13          5.2840    -2.5650    -1.7190 c          1 KQ7       0.581700
     14 O14          6.0740    -1.7970    -1.2060 o          1 KQ7      -0.633100
     15 N15          5.7310    -3.6210    -2.4270 ns         1 KQ7      -0.022100
     16 C16          7.1010    -3.7770    -2.6590 ca         1 KQ7      -0.085400
     17 C17          8.0190    -3.4130    -1.6820 ca         1 KQ7      -0.115000
     18 C18          9.3730    -3.5660    -1.9120 ca         1 KQ7      -0.066000
     19 C19          9.8190    -4.0810    -3.1130 ca         1 KQ7      -0.136300
     20 C20          8.9060    -4.4480    -4.0950 ca         1 KQ7      -0.069400
     21 C21          7.5460    -4.3000    -3.8660 ca         1 KQ7      -0.137000
     22 C22         11.2960    -4.2460    -3.3600 c3         1 KQ7       0.065200
     23 N23          9.3580    -4.9700    -5.3110 ns         1 KQ7      -0.036100
     24 C24          8.6590    -4.7460    -6.4420 c          1 KQ7       0.607700
     25 O25          7.5900    -4.1690    -6.3920 o          1 KQ7      -0.650100
     26 C26          9.1910    -5.2030    -7.7400 ca         1 KQ7      -0.367900
     27 C27          8.4710    -4.9760    -8.9230 ca         1 KQ7       0.055000
     28 C28          9.0020    -5.4160   -10.1060 ca         1 KQ7      -0.328300
     29 C29         10.2330    -6.0710   -10.1000 ca         1 KQ7       0.542200
     30 N30         10.8930    -6.2730    -8.9680 nb         1 KQ7      -0.666000
     31 C31         10.4200    -5.8610    -7.8100 ca         1 KQ7       0.481200
     32 N32         10.7740    -6.5170   -11.2940 nu         1 KQ7      -0.494900
     33 C33         10.0530    -6.2990   -12.5510 c3         1 KQ7       0.144800
     34 C34         10.8620    -6.8850   -13.7100 c3         1 KQ7      -0.029400
     35 C35         10.0450    -6.7910   -15.0010 c3         1 KQ7       0.128500
     36 C36         10.7910    -7.4930   -16.1630 c3         1 KQ7      -0.028400
     37 C37         10.1880    -6.7780   -17.4000 c3         1 KQ7      -0.043400
     38 C38          9.9870    -5.3310   -16.9010 c3         1 KQ7       0.150800
     39 N39          9.9200    -5.3820   -15.4290 n3         1 KQ7      -0.544600
     40 C40          8.6670    -4.7920   -14.9390 c3         1 KQ7       0.170100
     41 H1          -0.3610    -0.8950     0.4920 h1         1 KQ7       0.031200
     42 H1A         -0.3610     0.0290    -1.0210 h1         1 KQ7       0.031200
     43 H3           3.0750     0.0290     1.3490 h1         1 KQ7       0.031200
     44 H3A          1.6600    -0.8950     1.8860 h1         1 KQ7       0.031200
     45 H4           1.8390     2.1300     1.6300 h1         1 KQ7       0.014200
     46 H4A          1.8010     1.2080     3.1430 h1         1 KQ7       0.014200
     47 H6          -0.1860     2.1280     0.2330 h1         1 KQ7       0.014200
     48 H6A         -1.5860     1.2050     0.8070 h1         1 KQ7       0.014200
     49 H9           0.8310    -3.6380    -2.4350 h4         1 KQ7      -0.019900
     50 H10          3.2370    -4.0680    -2.7210 ha         1 KQ7       0.113000
     51 H12          4.0280    -0.5500    -0.3780 ha         1 KQ7       0.146000
     52 HN15         5.0870    -4.3150    -2.7520 hn         1 KQ7       0.172500
     53 H17          7.6730    -3.0080    -0.7390 ha         1 KQ7       0.143000
     54 H18         10.0860    -3.2810    -1.1480 ha         1 KQ7       0.107000
     55 H21          6.8330    -4.5850    -4.6300 ha         1 KQ7       0.156000
     56 H22         11.5750    -3.7040    -4.2560 hc         1 KQ7       0.006700
     57 H22A        11.5260    -5.2970    -3.4870 hc         1 KQ7       0.006700
     58 H22B        11.8490    -3.8550    -2.5150 hc         1 KQ7       0.006700
     59 HN23        10.2440    -5.4330    -5.3560 hn         1 KQ7       0.176500
     60 H27          7.5170    -4.4640    -8.9010 ha         1 KQ7       0.125000
     61 H28          8.4720    -5.2560   -11.0360 ha         1 KQ7       0.127000
     62 H31         10.9850    -6.0420    -6.9040 h4         1 KQ7      -0.029900
     63 HN32        11.6580    -6.9860   -11.2980 hn         1 KQ7       0.301800
     64 H33          9.9140    -5.2370   -12.7080 h1         1 KQ7       0.025200
     65 H33A         9.0860    -6.7870   -12.5030 h1         1 KQ7       0.025200
     66 H34         11.7840    -6.3280   -13.8250 hc         1 KQ7       0.027700
     67 H34A        11.0910    -7.9230   -13.5030 hc         1 KQ7       0.027700
     68 H35          9.0640    -7.2300   -14.8660 h1         1 KQ7       0.023700
     69 H36         11.8580    -7.3180   -16.0990 hc         1 KQ7       0.025200
     70 H36A        10.5650    -8.5530   -16.1820 hc         1 KQ7       0.025200
     71 H37          9.2380    -7.2230   -17.6720 hc         1 KQ7       0.020200
     72 H37A        10.8820    -6.8020   -18.2310 hc         1 KQ7       0.020200
     73 H38         10.8240    -4.7170   -17.2100 h1         1 KQ7       0.018700
     74 H38A         9.0620    -4.9310   -17.2980 h1         1 KQ7       0.018700
     75 H40          8.8840    -4.1050   -14.1290 h1         1 KQ7       0.005367
     76 H40A         8.1800    -4.2570   -15.7450 h1         1 KQ7       0.005367
     77 H40B         8.0140    -5.5780   -14.5800 h1         1 KQ7       0.005367
@<TRIPOS>BOND
     1     1     2 1   
     2     1     6 1   
     3     1    41 1   
     4     1    42 1   
     5     2     3 1   
     6     2     7 1   
     7     3     4 1   
     8     3    43 1   
     9     3    44 1   
    10     4     5 1   
    11     4    45 1   
    12     4    46 1   
    13     5     6 1   
    14     6    47 1   
    15     6    48 1   
    16     7     8 ar  
    17     7    12 ar  
    18     8     9 ar  
    19     9    10 ar  
    20     9    49 1   
    21    10    11 ar  
    22    10    50 1   
    23    11    12 ar  
    24    11    13 1   
    25    12    51 1   
    26    13    14 2   
    27    13    15 1   
    28    15    16 1   
    29    15    52 1   
    30    16    17 ar  
    31    16    21 ar  
    32    17    18 ar  
    33    17    53 1   
    34    18    19 ar  
    35    18    54 1   
    36    19    20 ar  
    37    19    22 1   
    38    20    21 ar  
    39    20    23 1   
    40    21    55 1   
    41    22    56 1   
    42    22    57 1   
    43    22    58 1   
    44    23    24 1   
    45    23    59 1   
    46    24    25 2   
    47    24    26 1   
    48    26    27 ar  
    49    26    31 ar  
    50    27    28 ar  
    51    27    60 1   
    52    28    29 ar  
    53    28    61 1   
    54    29    30 ar  
    55    29    32 1   
    56    30    31 ar  
    57    31    62 1   
    58    32    33 1   
    59    32    63 1   
    60    33    34 1   
    61    33    64 1   
    62    33    65 1   
    63    34    35 1   
    64    34    66 1   
    65    34    67 1   
    66    35    36 1   
    67    35    39 1   
    68    35    68 1   
    69    36    37 1   
    70    36    69 1   
    71    36    70 1   
    72    37    38 1   
    73    37    71 1   
    74    37    72 1   
    75    38    39 1   
    76    38    73 1   
    77    38    74 1   
    78    39    40 1   
    79    40    75 1   
    80    40    76 1   
    81    40    77 1   
@<TRIPOS>SUBSTRUCTURE
     1 KQ7         1 TEMP              0 ****  ****    0 ROOT
