@<TRIPOS>MOLECULE
KQQ
   72    76     1     0     0
SMALL
bcc


@<TRIPOS>ATOM
      1 OAH          0.0000     0.0000     0.0000 o          1 KQQ      -0.556100
      2 CAF          1.2180     0.0000     0.0000 c          1 KQQ       0.404700
      3 NAG          1.8910     0.0000     1.1670 nz         1 KQQ       0.217600
      4 CAD          1.9250    -0.0080    -1.2270 cc         1 KQQ      -0.319700
      5 SAC          3.6750    -0.0160    -1.3940 ss         1 KQQ      -0.267800
      6 CAB          3.5620    -0.0210    -3.0970 cc         1 KQQ       0.132900
      7 CAA          2.2890    -0.0160    -3.4960 cd         1 KQQ      -0.220000
      8 CAE          1.3540    -0.0140    -2.4770 cd         1 KQQ       0.169600
      9 NAI         -0.0220    -0.0150    -2.6950 nu         1 KQQ      -0.166300
     10 C4          -0.5190     0.1020    -3.9820 ca         1 KQQ       0.536200
     11 N3           0.2990     0.1060    -5.0300 nb         1 KQQ      -0.732000
     12 C5          -1.8990     0.2130    -4.2110 ca         1 KQQ      -0.416400
     13 CAP         -3.0890     0.2420    -3.3610 cc         1 KQQ      -0.141200
     14 CAQ         -4.1470     0.3680    -4.1790 cd         1 KQQ      -0.247100
     15 NAR         -3.7220     0.4200    -5.4840 na         1 KQQ       0.285900
     16 C6          -2.3590     0.3290    -5.5360 ca         1 KQQ       0.336800
     17 N1          -1.4660     0.3280    -6.5240 nb         1 KQQ      -0.659000
     18 C2          -0.1740     0.2160    -6.2640 ca         1 KQQ       0.727900
     19 NAS          0.7210     0.2160    -7.3230 nu         1 KQQ      -0.256300
     20 CAT          0.2600     0.4210    -8.6290 ca         1 KQQ      -0.036400
     21 CAY          1.0460     1.1140    -9.5470 ca         1 KQQ       0.113100
     22 OAZ          2.2650     1.5910    -9.1760 os         1 KQQ      -0.323900
     23 CBA          3.0170     2.2930   -10.1690 c3         1 KQQ       0.247700
     24 CAU         -0.9770    -0.0690    -9.0160 ca         1 KQQ      -0.139000
     25 CAV         -1.4330     0.1360   -10.3120 ca         1 KQQ      -0.083400
     26 CAW         -0.6540     0.8330   -11.2220 ca         1 KQQ      -0.071300
     27 CAX          0.5870     1.3170   -10.8370 ca         1 KQQ      -0.179000
     28 NBB         -2.6850    -0.3770   -10.6830 n          1 KQQ       0.024000
     29 C           -3.3160    -1.2760    -9.9020 c          1 KQQ       0.574100
     30 CA          -4.6270    -1.8720   -10.3470 c3         1 KQQ       0.075800
     31 N           -5.1060    -2.8160    -9.3290 n3         1 KQQ      -0.525600
     32 CBL         -6.4860    -3.2370    -9.6090 c3         1 KQQ       0.177600
     33 CBM         -4.2120    -3.9770    -9.2240 c3         1 KQQ       0.177600
     34 O           -2.8290    -1.6050    -8.8420 o          1 KQQ      -0.628100
     35 CBC         -3.2970     0.0820   -11.9380 c3         1 KQQ       0.014000
     36 CBD         -2.2080     0.0770   -13.0190 c3         1 KQQ      -0.033400
     37 CBE         -1.1230     1.0810   -12.6320 c3         1 KQQ      -0.009700
     38 CBG          0.0600     0.9390   -13.5910 c3         1 KQQ       0.003900
     39 CBF         -1.6870     2.4990   -12.7340 c3         1 KQQ       0.003900
     40 H1           1.2410     0.0290     1.9280 hn         1 KQQ       0.240467
     41 H2           2.4880     0.8020     1.2080 hn         1 KQQ       0.240467
     42 H3           4.4140    -0.0250    -3.7670 h4         1 KQQ       0.165000
     43 H4           2.0070    -0.0190    -4.5420 ha         1 KQQ       0.221000
     44 H5          -0.6500    -0.1210    -1.9240 hn         1 KQQ       0.325800
     45 H6          -3.1130     0.1760    -2.2800 ha         1 KQQ       0.128000
     46 H7          -5.1800     0.4210    -3.8580 h4         1 KQQ       0.152000
     47 H8          -4.3220     0.5130    -6.2790 hn         1 KQQ       0.134700
     48 H9           1.6920     0.0350    -7.1570 hn         1 KQQ       0.290800
     49 H10          2.4510     3.1500   -10.5130 h1         1 KQQ       0.000367
     50 H11          3.9550     2.6280    -9.7410 h1         1 KQQ       0.000367
     51 H12          3.2170     1.6330   -11.0040 h1         1 KQQ       0.000367
     52 H13         -1.5780    -0.6350    -8.3140 ha         1 KQQ       0.225000
     53 H14          1.2000     1.8560   -11.5490 ha         1 KQQ       0.135000
     54 H15         -5.3570    -1.0830   -10.4790 h1         1 KQQ       0.027700
     55 H16         -4.4870    -2.3950   -11.2850 h1         1 KQQ       0.027700
     56 H18         -7.1240    -2.3640    -9.6710 h1         1 KQQ       0.006200
     57 H19         -6.8350    -3.8830    -8.8130 h1         1 KQQ       0.006200
     58 H20         -6.5150    -3.7740   -10.5490 h1         1 KQQ       0.006200
     59 H21         -3.5250    -3.8310    -8.3990 h1         1 KQQ       0.006200
     60 H22         -3.6520    -4.0860   -10.1450 h1         1 KQQ       0.006200
     61 H23         -4.7990    -4.8710    -9.0500 h1         1 KQQ       0.006200
     62 H24         -3.6830     1.0860   -11.8110 h1         1 KQQ       0.033700
     63 H25         -4.0970    -0.5910   -12.2230 h1         1 KQQ       0.033700
     64 H26         -1.7690    -0.9110   -13.0710 hc         1 KQQ       0.033200
     65 H27         -2.6480     0.3820   -13.9610 hc         1 KQQ       0.033200
     66 H28          0.7210     1.7900   -13.4790 hc         1 KQQ       0.010533
     67 H29         -0.3040     0.8960   -14.6100 hc         1 KQQ       0.010533
     68 H30          0.6030     0.0290   -13.3630 hc         1 KQQ       0.010533
     69 H31         -0.8750     3.2020   -12.8770 hc         1 KQQ       0.010533
     70 H32         -2.3670     2.5580   -13.5750 hc         1 KQQ       0.010533
     71 H33         -2.2190     2.7430   -11.8220 hc         1 KQQ       0.010533
     72 HAG3         2.4580    -0.8230     1.2250 hn         1 KQQ       0.240467
@<TRIPOS>BOND
     1     1     2 2   
     2     2     3 1   
     3     2     4 1   
     4     3    40 1   
     5     3    41 1   
     6     3    72 1   
     7     4     5 1   
     8     4     8 2   
     9     5     6 1   
    10     6     7 2   
    11     6    42 1   
    12     7     8 1   
    13     7    43 1   
    14     8     9 1   
    15     9    10 1   
    16     9    44 1   
    17    10    11 ar  
    18    10    12 ar  
    19    11    18 ar  
    20    12    13 1   
    21    12    16 ar  
    22    13    14 2   
    23    13    45 1   
    24    14    15 1   
    25    14    46 1   
    26    15    16 1   
    27    15    47 1   
    28    16    17 ar  
    29    17    18 ar  
    30    18    19 1   
    31    19    20 1   
    32    19    48 1   
    33    20    21 ar  
    34    20    24 ar  
    35    21    22 1   
    36    21    27 ar  
    37    22    23 1   
    38    23    49 1   
    39    23    50 1   
    40    23    51 1   
    41    24    25 ar  
    42    24    52 1   
    43    25    26 ar  
    44    25    28 1   
    45    26    27 ar  
    46    26    37 1   
    47    27    53 1   
    48    28    29 1   
    49    28    35 1   
    50    29    30 1   
    51    29    34 2   
    52    30    31 1   
    53    30    54 1   
    54    30    55 1   
    55    31    32 1   
    56    31    33 1   
    57    32    56 1   
    58    32    57 1   
    59    32    58 1   
    60    33    59 1   
    61    33    60 1   
    62    33    61 1   
    63    35    36 1   
    64    35    62 1   
    65    35    63 1   
    66    36    37 1   
    67    36    64 1   
    68    36    65 1   
    69    37    38 1   
    70    37    39 1   
    71    38    66 1   
    72    38    67 1   
    73    38    68 1   
    74    39    69 1   
    75    39    70 1   
    76    39    71 1   
@<TRIPOS>SUBSTRUCTURE
     1 KQQ         1 TEMP              0 ****  ****    0 ROOT
