@<TRIPOS>MOLECULE
molecule
   72    76     1     0     0
SMALL
bcc


@<TRIPOS>ATOM
      1 OAH          0.0000     0.0000     0.0000 o          1 KQQ      -0.510100
      2 CAF          1.2180     0.0000     0.0000 c          1 KQQ       0.553700
      3 NAG          1.8910     0.0000     1.1670 nz         1 KQQ      -0.669400
      4 CAD          1.9250    -0.0080    -1.2270 cc         1 KQQ      -0.321700
      5 SAC          3.6750    -0.0160    -1.3940 ss         1 KQQ      -0.159800
      6 CAB          3.5620    -0.0210    -3.0970 cc         1 KQQ       0.031900
      7 CAA          2.2890    -0.0160    -3.4960 cd         1 KQQ      -0.211000
      8 CAE          1.3540    -0.0140    -2.4770 cd         1 KQQ       0.327600
      9 NAI         -0.0220    -0.0150    -2.6950 nu         1 KQQ      -0.691300
     10 C4          -0.5190     0.1020    -3.9820 ca         1 KQQ       0.752200
     11 N3           0.2990     0.1060    -5.0300 nb         1 KQQ      -0.872000
     12 C5          -1.8990     0.2130    -4.2110 ca         1 KQQ      -0.416400
     13 CAP         -3.0890     0.2420    -3.3610 cc         1 KQQ      -0.186200
     14 CAQ         -4.1470     0.3680    -4.1790 cd         1 KQQ      -0.082100
     15 NAR         -3.7220     0.4200    -5.4840 na         1 KQQ      -0.263100
     16 C6          -2.3590     0.3290    -5.5360 ca         1 KQQ       0.572800
     17 N1          -1.4660     0.3280    -6.5240 nb         1 KQQ      -0.793000
     18 C2          -0.1740     0.2160    -6.2640 ca         1 KQQ       0.989900
     19 NAS          0.7210     0.2160    -7.3230 nu         1 KQQ      -0.735300
     20 CAT          0.2600     0.4210    -8.6290 ca         1 KQQ       0.129600
     21 CAY          1.0460     1.1140    -9.5470 ca         1 KQQ       0.093100
     22 OAZ          2.2650     1.5910    -9.1760 os         1 KQQ      -0.344900
     23 CBA          3.0170     2.2930   -10.1690 c3         1 KQQ       0.130700
     24 CAU         -0.9770    -0.0690    -9.0160 ca         1 KQQ      -0.129000
     25 CAV         -1.4330     0.1360   -10.3120 ca         1 KQQ       0.047600
     26 CAW         -0.6540     0.8330   -11.2220 ca         1 KQQ      -0.079300
     27 CAX          0.5870     1.3170   -10.8370 ca         1 KQQ      -0.185000
     28 NBB         -2.6850    -0.3770   -10.6830 n          1 KQQ      -0.374000
     29 C           -3.3160    -1.2760    -9.9020 c          1 KQQ       0.664100
     30 CA          -4.6270    -1.8720   -10.3470 c3         1 KQQ       0.088800
     31 N           -5.1060    -2.8160    -9.3290 n3         1 KQQ      -0.717600
     32 CBL         -6.4860    -3.2370    -9.6090 c3         1 KQQ       0.150600
     33 CBM         -4.2120    -3.9770    -9.2240 c3         1 KQQ       0.150600
     34 O           -2.8290    -1.6050    -8.8420 o          1 KQQ      -0.583100
     35 CBC         -3.2970     0.0820   -11.9380 c3         1 KQQ       0.093000
     36 CBD         -2.2080     0.0770   -13.0190 c3         1 KQQ      -0.087400
     37 CBE         -1.1230     1.0810   -12.6320 c3         1 KQQ      -0.018700
     38 CBG          0.0600     0.9390   -13.5910 c3         1 KQQ      -0.081600
     39 CBF         -1.6870     2.4990   -12.7340 c3         1 KQQ      -0.081600
     40 H1           1.2410     0.0290     1.9280 hn         1 KQQ       0.473133
     41 H2           2.4880     0.8020     1.2080 hn         1 KQQ       0.473133
     42 H3           4.4140    -0.0250    -3.7670 h4         1 KQQ       0.201000
     43 H4           2.0070    -0.0190    -4.5420 ha         1 KQQ       0.250000
     44 H5          -0.6500    -0.1210    -1.9240 hn         1 KQQ       0.494800
     45 H6          -3.1130     0.1760    -2.2800 ha         1 KQQ       0.152000
     46 H7          -5.1800     0.4210    -3.8580 h4         1 KQQ       0.182000
     47 H8          -4.3220     0.5130    -6.2790 hn         1 KQQ       0.323700
     48 H9           1.6920     0.0350    -7.1570 hn         1 KQQ       0.468800
     49 H10          2.4510     3.1500   -10.5130 h1         1 KQQ       0.043367
     50 H11          3.9550     2.6280    -9.7410 h1         1 KQQ       0.043367
     51 H12          3.2170     1.6330   -11.0040 h1         1 KQQ       0.043367
     52 H13         -1.5780    -0.6350    -8.3140 ha         1 KQQ       0.235000
     53 H14          1.2000     1.8560   -11.5490 ha         1 KQQ       0.146000
     54 H15         -5.3570    -1.0830   -10.4790 h1         1 KQQ       0.054700
     55 H16         -4.4870    -2.3950   -11.2850 h1         1 KQQ       0.054700
     56 H18         -7.1240    -2.3640    -9.6710 h1         1 KQQ       0.037367
     57 H19         -6.8350    -3.8830    -8.8130 h1         1 KQQ       0.037367
     58 H20         -6.5150    -3.7740   -10.5490 h1         1 KQQ       0.037367
     59 H21         -3.5250    -3.8310    -8.3990 h1         1 KQQ       0.037367
     60 H22         -3.6520    -4.0860   -10.1450 h1         1 KQQ       0.037367
     61 H23         -4.7990    -4.8710    -9.0500 h1         1 KQQ       0.037367
     62 H24         -3.6830     1.0860   -11.8110 h1         1 KQQ       0.056700
     63 H25         -4.0970    -0.5910   -12.2230 h1         1 KQQ       0.056700
     64 H26         -1.7690    -0.9110   -13.0710 hc         1 KQQ       0.061700
     65 H27         -2.6480     0.3820   -13.9610 hc         1 KQQ       0.061700
     66 H28          0.7210     1.7900   -13.4790 hc         1 KQQ       0.040200
     67 H29         -0.3040     0.8960   -14.6100 hc         1 KQQ       0.040200
     68 H30          0.6030     0.0290   -13.3630 hc         1 KQQ       0.040200
     69 H31         -0.8750     3.2020   -12.8770 hc         1 KQQ       0.040200
     70 H32         -2.3670     2.5580   -13.5750 hc         1 KQQ       0.040200
     71 H33         -2.2190     2.7430   -11.8220 hc         1 KQQ       0.040200
     72 HAG3         2.4580    -0.8230     1.2250 hn         1 KQQ       0.473133
@<TRIPOS>BOND
     1    33    31 1
     2    31    32 1
     3    31    30 1
     4    30    29 1
     5    34    29 2
     6     3     2 1
     7    29    28 1
     8     2     1 2
     9     2     4 1
    10     5     4 1
    11     5     6 1
    12     4     8 2
    13    28    35 1
    14    28    25 1
    15    35    36 1
    16     8     9 1
    17     8     7 1
    18    36    37 1
    19     6     7 2
    20     9    10 1
    21    25    24 ar
    22    25    26 ar
    23    24    20 ar
    24    10    12 ar
    25    10    11 ar
    26    13    12 1
    27    13    14 2
    28    12    16 ar
    29    11    18 ar
    30    38    37 1
    31    37    26 1
    32    37    39 1
    33    14    15 1
    34    26    27 ar
    35    20    19 1
    36    20    21 ar
    37    18    17 ar
    38    18    19 1
    39    16    15 1
    40    16    17 ar
    41    27    21 ar
    42    21    22 1
    43    22    23 1
    44     3    40 1
    45     3    41 1
    46     6    42 1
    47     7    43 1
    48     9    44 1
    49    13    45 1
    50    14    46 1
    51    15    47 1
    52    19    48 1
    53    23    49 1
    54    23    50 1
    55    23    51 1
    56    24    52 1
    57    27    53 1
    58    30    54 1
    59    30    55 1
    60    32    56 1
    61    32    57 1
    62    32    58 1
    63    33    59 1
    64    33    60 1
    65    33    61 1
    66    35    62 1
    67    35    63 1
    68    36    64 1
    69    36    65 1
    70    38    66 1
    71    38    67 1
    72    38    68 1
    73    39    69 1
    74    39    70 1
    75    39    71 1
    76    72     3 1
@<TRIPOS>SUBSTRUCTURE
     1 KQQ         1 TEMP              0 ****  ****    0 ROOT
