@<TRIPOS>MOLECULE
molecule
   42    44     1     0     0
SMALL
bcc


@<TRIPOS>ATOM
      1 F            0.0000     0.0000     0.0000 f          1 KQS      -0.138900
      2 C16          1.3520     0.0000     0.0000 ca         1 KQS       0.136900
      3 C15          2.0440     0.0000     1.1980 ca         1 KQS      -0.164000
      4 C14          3.4270    -0.0010     1.1970 ca         1 KQS      -0.106000
      5 C13          4.1170    -0.0000    -0.0000 ca         1 KQS      -0.142000
      6 C12          3.4260    -0.0000    -1.1980 ca         1 KQS      -0.104000
      7 C11          2.0440    -0.0060    -1.1980 ca         1 KQS      -0.119300
      8 C10          1.2910    -0.0110    -2.5040 c3         1 KQS      -0.012400
      9 C17          1.6620     1.2340    -3.3120 c3         1 KQS      -0.079100
     10 C9           1.6610    -1.2640    -3.3010 c3         1 KQS      -0.149400
     11 C8           0.8180    -1.3330    -4.5480 c          1 KQS       0.656100
     12 O1           0.0030    -0.4660    -4.7780 o          1 KQS      -0.606100
     13 N2           0.9710    -2.3590    -5.4080 ns         1 KQS      -0.588900
     14 C7           0.1520    -2.4260    -6.6210 c3         1 KQS       0.165300
     15 C3           0.5160    -3.6600    -7.4060 ca         1 KQS      -0.115300
     16 C2          -0.1490    -4.8470    -7.1680 ca         1 KQS      -0.110000
     17 C4           1.5120    -3.5980    -8.3660 ca         1 KQS      -0.109000
     18 C5           1.8520    -4.7240    -9.0900 ca         1 KQS      -0.128000
     19 C6           1.1950    -5.9210    -8.8550 ca         1 KQS       0.001600
     20 C1           0.1860    -5.9820    -7.8890 ca         1 KQS      -0.008400
     21 N           -0.2850    -7.2930    -7.8840 ns         1 KQS      -0.448100
     22 N1           1.3040    -7.1960    -9.4040 ns         1 KQS      -0.447100
     23 C            0.4050    -7.9960    -8.8010 c          1 KQS       0.800500
     24 O            0.2390    -9.1760    -9.0480 o          1 KQS      -0.655500
     25 H15          1.5030    -0.0000     2.1370 ha         1 KQS       0.145000
     26 H14          3.9690    -0.0010     2.1350 ha         1 KQS       0.136000
     27 H13          5.2000     0.0020    -0.0010 ha         1 KQS       0.133000
     28 H12          3.9680    -0.0020    -2.1360 ha         1 KQS       0.136000
     29 H10          0.2260    -0.0100    -2.3070 hc         1 KQS       0.085700
     30 H171         2.1460     0.9360    -4.2340 hc         1 KQS       0.041033
     31 H172         2.3370     1.8530    -2.7330 hc         1 KQS       0.041033
     32 H173         0.7640     1.7970    -3.5400 hc         1 KQS       0.041033
     33 H91C         2.7080    -1.2220    -3.5750 hc         1 KQS       0.062200
     34 H92C         1.4810    -2.1440    -2.6950 hc         1 KQS       0.062200
     35 H2           1.6340    -3.0820    -5.2120 hn         1 KQS       0.317500
     36 H71C        -0.8950    -2.4670    -6.3480 h1         1 KQS       0.060200
     37 H72C         0.3320    -1.5460    -7.2280 h1         1 KQS       0.060200
     38 HA          -0.9800    -4.8720    -6.4740 ha         1 KQS       0.142000
     39 H4           2.0150    -2.6580    -8.5610 ha         1 KQS       0.143000
     40 H5           2.6320    -4.6720    -9.8400 ha         1 KQS       0.139000
     41 H1           1.9430    -7.4710   -10.1230 hn         1 KQS       0.363500
     42 H           -1.0120    -7.6520    -7.2970 hn         1 KQS       0.363500
@<TRIPOS>BOND
     1     1     2 1
     2     2     3 ar
     3     2     7 ar
     4     3     4 ar
     5     4     5 ar
     6     5     6 ar
     7     6     7 ar
     8     7     8 1
     9     8     9 1
    10     8    10 1
    11    10    11 1
    12    11    12 2
    13    11    13 1
    14    13    14 1
    15    14    15 1
    16    15    16 ar
    17    15    17 ar
    18    16    20 ar
    19    17    18 ar
    20    18    19 ar
    21    19    20 ar
    22    19    22 1
    23    20    21 1
    24    21    23 1
    25    22    23 1
    26    23    24 2
    27     3    25 1
    28     4    26 1
    29     5    27 1
    30     6    28 1
    31     8    29 1
    32     9    30 1
    33     9    31 1
    34     9    32 1
    35    10    33 1
    36    10    34 1
    37    13    35 1
    38    14    36 1
    39    14    37 1
    40    16    38 1
    41    17    39 1
    42    18    40 1
    43    22    41 1
    44    21    42 1
@<TRIPOS>SUBSTRUCTURE
     1 KQS         1 TEMP              0 ****  ****    0 ROOT
