@<TRIPOS>MOLECULE
KQS
   42    44     1     0     0
SMALL
bcc


@<TRIPOS>ATOM
      1 F            0.0000     0.0000     0.0000 f          1 KQS      -0.126900
      2 C16          1.3520     0.0000     0.0000 ca         1 KQS       0.111900
      3 C15          2.0440     0.0000     1.1980 ca         1 KQS      -0.130000
      4 C14          3.4270    -0.0010     1.1970 ca         1 KQS      -0.079000
      5 C13          4.1170    -0.0000    -0.0000 ca         1 KQS      -0.112000
      6 C12          3.4260    -0.0000    -1.1980 ca         1 KQS      -0.079000
      7 C11          2.0440    -0.0060    -1.1980 ca         1 KQS      -0.117300
      8 C10          1.2910    -0.0110    -2.5040 c3         1 KQS       0.020600
      9 C17          1.6620     1.2340    -3.3120 c3         1 KQS       0.003900
     10 C9           1.6610    -1.2640    -3.3010 c3         1 KQS      -0.094400
     11 C8           0.8180    -1.3330    -4.5480 c          1 KQS       0.570100
     12 O1           0.0030    -0.4660    -4.7780 o          1 KQS      -0.644100
     13 N2           0.9710    -2.3590    -5.4080 ns         1 KQS      -0.203900
     14 C7           0.1520    -2.4260    -6.6210 c3         1 KQS       0.116300
     15 C3           0.5160    -3.6600    -7.4060 ca         1 KQS      -0.123300
     16 C2          -0.1490    -4.8470    -7.1680 ca         1 KQS      -0.067000
     17 C4           1.5120    -3.5980    -8.3660 ca         1 KQS      -0.082000
     18 C5           1.8520    -4.7240    -9.0900 ca         1 KQS      -0.084000
     19 C6           1.1950    -5.9210    -8.8550 ca         1 KQS      -0.158400
     20 C1           0.1860    -5.9820    -7.8890 ca         1 KQS      -0.166400
     21 N           -0.2850    -7.2930    -7.8840 ns         1 KQS       0.023900
     22 N1           1.3040    -7.1960    -9.4040 ns         1 KQS       0.024900
     23 C            0.4050    -7.9960    -8.8010 c          1 KQS       0.555500
     24 O            0.2390    -9.1760    -9.0480 o          1 KQS      -0.712500
     25 H15          1.5030    -0.0000     2.1370 ha         1 KQS       0.119000
     26 H14          3.9690    -0.0010     2.1350 ha         1 KQS       0.106000
     27 H13          5.2000     0.0020    -0.0010 ha         1 KQS       0.106000
     28 H12          3.9680    -0.0020    -2.1360 ha         1 KQS       0.111000
     29 H10          0.2260    -0.0100    -2.3070 hc         1 KQS       0.059700
     30 H171         2.1460     0.9360    -4.2340 hc         1 KQS       0.010700
     31 H172         2.3370     1.8530    -2.7330 hc         1 KQS       0.010700
     32 H173         0.7640     1.7970    -3.5400 hc         1 KQS       0.010700
     33 H91C         2.7080    -1.2220    -3.5750 hc         1 KQS       0.030700
     34 H92C         1.4810    -2.1440    -2.6950 hc         1 KQS       0.030700
     35 H2           1.6340    -3.0820    -5.2120 hn         1 KQS       0.176500
     36 H71C        -0.8950    -2.4670    -6.3480 h1         1 KQS       0.029700
     37 H72C         0.3320    -1.5460    -7.2280 h1         1 KQS       0.029700
     38 HA          -0.9800    -4.8720    -6.4740 ha         1 KQS       0.113000
     39 H4           2.0150    -2.6580    -8.5610 ha         1 KQS       0.113000
     40 H5           2.6320    -4.6720    -9.8400 ha         1 KQS       0.109000
     41 H1           1.9430    -7.4710   -10.1230 hn         1 KQS       0.192500
     42 H           -1.0120    -7.6520    -7.2970 hn         1 KQS       0.192500
@<TRIPOS>BOND
     1     1     2 1   
     2     2     3 ar  
     3     2     7 ar  
     4     3     4 ar  
     5     3    25 1   
     6     4     5 ar  
     7     4    26 1   
     8     5     6 ar  
     9     5    27 1   
    10     6     7 ar  
    11     6    28 1   
    12     7     8 1   
    13     8     9 1   
    14     8    10 1   
    15     8    29 1   
    16     9    30 1   
    17     9    31 1   
    18     9    32 1   
    19    10    11 1   
    20    10    33 1   
    21    10    34 1   
    22    11    12 2   
    23    11    13 1   
    24    13    14 1   
    25    13    35 1   
    26    14    15 1   
    27    14    36 1   
    28    14    37 1   
    29    15    16 ar  
    30    15    17 ar  
    31    16    20 ar  
    32    16    38 1   
    33    17    18 ar  
    34    17    39 1   
    35    18    19 ar  
    36    18    40 1   
    37    19    20 ar  
    38    19    22 1   
    39    20    21 1   
    40    21    23 1   
    41    21    42 1   
    42    22    23 1   
    43    22    41 1   
    44    23    24 2   
@<TRIPOS>SUBSTRUCTURE
     1 KQS         1 TEMP              0 ****  ****    0 ROOT
