@<TRIPOS>MOLECULE
molecule
   71    70     1     0     0
SMALL
bcc


@<TRIPOS>ATOM
      1 C1           0.0000     0.0000     0.0000 c3         1 KR0       0.151400
      2 O1           1.4520     0.0000     0.0000 os         1 KR0      -0.431900
      3 C2          -0.5100     0.0000     1.4420 c3         1 KR0      -0.091400
      4 C3          -2.0400    -0.0010     1.4420 c3         1 KR0       0.151400
      5 C4          -6.5450    -0.0020     5.7110 c3         1 KR0      -0.083900
      6 O4          -2.5250    -0.0010     2.8100 os         1 KR0      -0.431900
      7 C5          -3.8560    -0.0010     2.9860 c          1 KR0       0.631100
      8 C6          -8.0730    -0.0020     5.6310 c3         1 KR0      -0.079900
      9 C7           2.0620     0.0000    -1.1960 c          1 KR0       0.631100
     10 C8          -8.6580    -0.0030     7.0440 c3         1 KR0      -0.082400
     11 O8          -4.5920    -0.0010     2.0270 o          1 KR0      -0.549000
     12 C9         -10.1860    -0.0020     6.9640 c3         1 KR0      -0.082400
     13 O9           1.4040     0.0000    -2.2100 o          1 KR0      -0.549000
     14 C10         -4.4320    -0.0020     4.3780 c3         1 KR0      -0.125400
     15 C11         -5.9600    -0.0010     4.2970 c3         1 KR0      -0.072400
     16 C12          3.5670     0.0010    -1.2740 c3         1 KR0      -0.125400
     17 C13          4.0000     0.0010    -2.7410 c3         1 KR0      -0.072400
     18 C14        -10.7710    -0.0030     8.3780 c3         1 KR0      -0.081400
     19 C15        -12.3000    -0.0040     8.2970 c3         1 KR0      -0.084400
     20 C16        -12.8840    -0.0040     9.7100 c3         1 KR0      -0.092100
     21 C17          5.5290     0.0010    -2.8210 c3         1 KR0      -0.083900
     22 C18          5.9640     0.0010    -4.2880 c3         1 KR0      -0.079900
     23 C19          7.4910     0.0010    -4.3670 c3         1 KR0      -0.082400
     24 C20          7.9260     0.0020    -5.8350 c3         1 KR0      -0.082400
     25 C21          9.4530     0.0020    -5.9130 c3         1 KR0      -0.081400
     26 C22          9.8880     0.0020    -7.3810 c3         1 KR0      -0.084400
     27 C23         11.4150     0.0020    -7.4600 c3         1 KR0      -0.092100
     28 H1          -0.3610    -0.8840    -0.5110 h1         1 KR0       0.052700
     29 H1A         -0.3610     0.8840    -0.5110 h1         1 KR0       0.052700
     30 H2          -0.1490    -0.8840     1.9530 hc         1 KR0       0.065700
     31 H2A         -0.1500     0.8850     1.9530 hc         1 KR0       0.065700
     32 H3          -2.4010    -0.8850     0.9300 h1         1 KR0       0.052700
     33 H3A         -2.4010     0.8840     0.9310 h1         1 KR0       0.052700
     34 H4          -6.2110    -0.8860     6.2400 hc         1 KR0       0.040700
     35 H4A         -6.2120     0.8830     6.2400 hc         1 KR0       0.040700
     36 H6          -8.4080     0.8820     5.1020 hc         1 KR0       0.044700
     37 H6A         -8.4070    -0.8870     5.1020 hc         1 KR0       0.044700
     38 H8          -8.3250    -0.8870     7.5730 hc         1 KR0       0.040700
     39 H8A         -8.3240     0.8820     7.5730 hc         1 KR0       0.040700
     40 H9         -10.5210    -0.8870     6.4350 hc         1 KR0       0.041700
     41 H9A        -10.5200     0.8820     6.4350 hc         1 KR0       0.041700
     42 H10         -4.0980     0.8830     4.9070 hc         1 KR0       0.071700
     43 H10A        -4.0980    -0.8860     4.9070 hc         1 KR0       0.071700
     44 H11         -6.2930    -0.8860     3.7680 hc         1 KR0       0.058700
     45 H11A        -6.2930     0.8830     3.7680 hc         1 KR0       0.058700
     46 H12          3.9540     0.8850    -0.7820 hc         1 KR0       0.071700
     47 H12A         3.9540    -0.8840    -0.7830 hc         1 KR0       0.071700
     48 H13          3.6130    -0.8830    -3.2330 hc         1 KR0       0.058700
     49 H13A         3.6130     0.8860    -3.2320 hc         1 KR0       0.058700
     50 H14        -10.4370    -0.8870     8.9060 hc         1 KR0       0.040700
     51 H14A       -10.4380     0.8820     8.9060 hc         1 KR0       0.040700
     52 H15        -12.6340     0.8810     7.7680 hc         1 KR0       0.040450
     53 H15A       -12.6330    -0.8880     7.7680 hc         1 KR0       0.040450
     54 H16        -12.5510     0.8810    10.2390 hc         1 KR0       0.032700
     55 H16A       -13.9660    -0.0040     9.6540 hc         1 KR0       0.032700
     56 H16B       -12.5500    -0.8880    10.2390 hc         1 KR0       0.032700
     57 H17          5.9160    -0.8830    -2.3290 hc         1 KR0       0.040700
     58 H17A         5.9160     0.8860    -2.3290 hc         1 KR0       0.040700
     59 H18          5.5770     0.8850    -4.7790 hc         1 KR0       0.044700
     60 H18A         5.5770    -0.8830    -4.7790 hc         1 KR0       0.044700
     61 H19          7.8780    -0.8830    -3.8760 hc         1 KR0       0.040700
     62 H19A         7.8780     0.8860    -3.8760 hc         1 KR0       0.040700
     63 H20          7.5390     0.8870    -6.3260 hc         1 KR0       0.041700
     64 H20A         7.5390    -0.8820    -6.3260 hc         1 KR0       0.041700
     65 H21          9.8410    -0.8820    -5.4220 hc         1 KR0       0.040700
     66 H21A         9.8400     0.8870    -5.4220 hc         1 KR0       0.040700
     67 H22          9.5010     0.8860    -7.8730 hc         1 KR0       0.040450
     68 H22A         9.5010    -0.8830    -7.8720 hc         1 KR0       0.040450
     69 H23         11.8030    -0.8820    -6.9690 hc         1 KR0       0.032700
     70 H23A        11.7230     0.0020    -8.4990 hc         1 KR0       0.032700
     71 H23B        11.8020     0.8870    -6.9690 hc         1 KR0       0.032700
@<TRIPOS>BOND
     1     1     2 1
     2     1     3 1
     3     2     9 1
     4     3     4 1
     5     4     6 1
     6     5     8 1
     7     5    15 1
     8     6     7 1
     9     7    11 2
    10     7    14 1
    11     8    10 1
    12     9    13 2
    13     9    16 1
    14    10    12 1
    15    12    18 1
    16    14    15 1
    17    16    17 1
    18    17    21 1
    19    18    19 1
    20    19    20 1
    21    21    22 1
    22    22    23 1
    23    23    24 1
    24    24    25 1
    25    25    26 1
    26    26    27 1
    27     1    28 1
    28     1    29 1
    29     3    30 1
    30     3    31 1
    31     4    32 1
    32     4    33 1
    33     5    34 1
    34     5    35 1
    35     8    36 1
    36     8    37 1
    37    10    38 1
    38    10    39 1
    39    12    40 1
    40    12    41 1
    41    14    42 1
    42    14    43 1
    43    15    44 1
    44    15    45 1
    45    16    46 1
    46    16    47 1
    47    17    48 1
    48    17    49 1
    49    18    50 1
    50    18    51 1
    51    19    52 1
    52    19    53 1
    53    20    54 1
    54    20    55 1
    55    20    56 1
    56    21    57 1
    57    21    58 1
    58    22    59 1
    59    22    60 1
    60    23    61 1
    61    23    62 1
    62    24    63 1
    63    24    64 1
    64    25    65 1
    65    25    66 1
    66    26    67 1
    67    26    68 1
    68    27    69 1
    69    27    70 1
    70    27    71 1
@<TRIPOS>SUBSTRUCTURE
     1 KR0         1 TEMP              0 ****  ****    0 ROOT
