@<TRIPOS>MOLECULE
KR2
   55    57     1     0     0
SMALL
bcc


@<TRIPOS>ATOM
      1 CAY          0.0000     0.0000     0.0000 ca         1 KR2      -0.091000
      2 CBC          1.3960     0.0000     0.0000 ca         1 KR2      -0.093500
      3 CBB          2.0930     0.0000     1.2070 ca         1 KR2      -0.071000
      4 CBA          1.3970    -0.0000     2.4160 ca         1 KR2      -0.093500
      5 CAZ          0.0020     0.0010     2.4170 ca         1 KR2      -0.091000
      6 CAX         -0.6890     0.0010     1.2090 ca         1 KR2      -0.158600
      7 CAW         -2.1610     0.0010     1.2100 c          1 KR2       0.627700
      8 OAA         -2.7140    -1.0970     1.2380 o          1 KR2      -0.551100
      9 NAR         -2.8200     1.2260     1.2100 n          1 KR2      -0.159400
     10 CAV         -4.2700     1.3650     1.2460 c3         1 KR2       0.053000
     11 CDD         -4.8150     1.2990     2.6700 c3         1 KR2      -0.051400
     12 CNN         -4.2550     2.3830     3.5950 c3         1 KR2      -0.025400
     13 CAT         -2.7460     2.2640     3.8200 c3         1 KR2      -0.026400
     14 CAS         -1.8990     2.8830     2.7050 c3         1 KR2       0.026000
     15 NAQ         -2.1530     2.4410     1.3390 n          1 KR2      -0.034400
     16 CAO         -1.7940     3.1960     0.2300 c          1 KR2       0.592100
     17 OAP         -1.2360     4.2940     0.3140 o          1 KR2      -0.665100
     18 CAN         -2.1690     2.6580    -1.1310 c3         1 KR2      -0.139400
     19 CAL         -1.6980     3.5850    -2.2520 c3         1 KR2      -0.027500
     20 NAM         -0.2310     3.6210    -2.1970 nz         1 KR2       0.035400
     21 CAK         -2.2280     5.0290    -2.1190 c3         1 KR2      -0.003100
     22 CAG         -3.7280     5.1610    -2.2200 ca         1 KR2      -0.142300
     23 CAH         -4.3670     4.7470    -3.3780 ca         1 KR2      -0.096000
     24 CAC         -5.7530     4.8670    -3.4740 ca         1 KR2       0.088900
     25 FAB         -6.3840     4.4710    -4.5870 f          1 KR2      -0.094900
     26 CAD         -6.4830     5.3990    -2.4110 ca         1 KR2       0.135900
     27 FAI         -7.8140     5.5150    -2.5040 f          1 KR2      -0.089900
     28 CAE         -5.8260     5.8120    -1.2520 ca         1 KR2      -0.134000
     29 CAF         -4.4400     5.6920    -1.1550 ca         1 KR2       0.138900
     30 FAJ         -3.8170     6.0910    -0.0380 f          1 KR2      -0.104900
     31 HAM1         0.1290     2.6900    -2.2740 hn         1 KR2       0.237133
     32 HAM2         0.0600     4.0200    -1.3270 hn         1 KR2       0.237133
     33 HAL         -2.0100     3.1770    -3.2070 hx         1 KR2       0.081700
     34 HAN1        -3.2460     2.5570    -1.1850 hc         1 KR2       0.073200
     35 HAN2        -1.7150     1.6840    -1.2630 hc         1 KR2       0.073200
     36 HAZ         -0.5390    -0.1100     3.3490 ha         1 KR2       0.111000
     37 HBA          1.9390    -0.0260     3.3530 ha         1 KR2       0.112500
     38 HBB          3.1770     0.0070     1.2070 ha         1 KR2       0.117000
     39 HBC          1.9370    -0.0260    -0.9380 ha         1 KR2       0.112500
     40 HAY         -0.5410    -0.1170    -0.9310 ha         1 KR2       0.111000
     41 HAV1        -4.5420     2.3190     0.8110 h1         1 KR2       0.032200
     42 HAV2        -4.7140     0.5670     0.6640 h1         1 KR2       0.032200
     43 HDD1        -5.8920     1.4020     2.6310 hc         1 KR2       0.038200
     44 HDD2        -4.5690     0.3300     3.0870 hc         1 KR2       0.038200
     45 HNN1        -4.4650     3.3520     3.1600 hc         1 KR2       0.026200
     46 HNN2        -4.7550     2.3100     4.5540 hc         1 KR2       0.026200
     47 HAT1        -2.4930     1.2140     3.9000 hc         1 KR2       0.032700
     48 HAT2        -2.4990     2.7560     4.7520 hc         1 KR2       0.032700
     49 HAS1        -0.8590     2.6770     2.9300 h1         1 KR2       0.036700
     50 HAS2        -2.0460     3.9560     2.7370 h1         1 KR2       0.036700
     51 HAK1        -1.9140     5.4210    -1.1590 hc         1 KR2       0.065200
     52 HAK2        -1.7780     5.6310    -2.9000 hc         1 KR2       0.065200
     53 HAH         -3.7860     4.4780    -4.2520 ha         1 KR2       0.126000
     54 HAE         -6.3920     6.2260    -0.4260 ha         1 KR2       0.152000
     55 HAM3         0.1170     4.1910    -2.9420 hn         1 KR2       0.237133
@<TRIPOS>BOND
     1     1     2 ar  
     2     1     6 ar  
     3     1    40 1   
     4     2     3 ar  
     5     2    39 1   
     6     3     4 ar  
     7     3    38 1   
     8     4     5 ar  
     9     4    37 1   
    10     5     6 ar  
    11     5    36 1   
    12     6     7 1   
    13     7     8 2   
    14     7     9 1   
    15     9    10 1   
    16     9    15 1   
    17    10    11 1   
    18    10    41 1   
    19    10    42 1   
    20    11    12 1   
    21    11    43 1   
    22    11    44 1   
    23    12    13 1   
    24    12    45 1   
    25    12    46 1   
    26    13    14 1   
    27    13    47 1   
    28    13    48 1   
    29    14    15 1   
    30    14    49 1   
    31    14    50 1   
    32    15    16 1   
    33    16    17 2   
    34    16    18 1   
    35    18    19 1   
    36    18    34 1   
    37    18    35 1   
    38    19    20 1   
    39    19    21 1   
    40    19    33 1   
    41    20    31 1   
    42    20    32 1   
    43    20    55 1   
    44    21    22 1   
    45    21    51 1   
    46    21    52 1   
    47    22    23 ar  
    48    22    29 ar  
    49    23    24 ar  
    50    23    53 1   
    51    24    25 1   
    52    24    26 ar  
    53    26    27 1   
    54    26    28 ar  
    55    28    29 ar  
    56    28    54 1   
    57    29    30 1   
@<TRIPOS>SUBSTRUCTURE
     1 KR2         1 TEMP              0 ****  ****    0 ROOT
