@<TRIPOS>MOLECULE
KR5
   41    42     1     0     0
SMALL
bcc


@<TRIPOS>ATOM
      1 O25          0.0000     0.0000     0.0000 o          1 KR5      -0.600100
      2 C22          1.2080     0.0000     0.0000 c          1 KR5       0.503900
      3 N27          1.8830     0.0000     1.1660 n          1 KR5       0.488300
      4 C29          1.3320     0.0020     2.4130 cc         1 KR5      -0.177600
      5 C33         -0.1410     0.0050     2.7370 c3         1 KR5       0.092200
      6 C30          2.3450     0.0020     3.3060 cd         1 KR5      -0.306300
      7 C31          3.5510    -0.0000     2.5920 cd         1 KR5       0.416600
      8 C37          4.9320    -0.0020     3.1950 c3         1 KR5      -0.013400
      9 N28          3.2750    -0.0060     1.3150 nc         1 KR5      -0.664800
     10 C19          1.9600    -0.0090    -1.3060 c3         1 KR5      -0.105400
     11 C18          0.9660    -0.0150    -2.4690 c3         1 KR5       0.151800
     12 N17          1.6970    -0.0230    -3.7380 nu         1 KR5      -0.351600
     13 C8           0.9980    -0.0300    -4.9470 ca         1 KR5       0.137600
     14 C7          -0.3910    -0.0240    -4.9480 ca         1 KR5      -0.202000
     15 C6          -1.0790    -0.0300    -6.1450 ca         1 KR5       0.062500
     16 C9           1.6910    -0.0380    -6.1510 ca         1 KR5      -0.202000
     17 C10          0.9960    -0.0440    -7.3450 ca         1 KR5       0.062500
     18 C5          -0.3870    -0.0430    -7.3420 ca         1 KR5      -0.298500
     19 S2          -1.2680    -0.0510    -8.8680 sy         1 KR5       0.931200
     20 O3          -0.3900    -0.6070    -9.8360 o          1 KR5      -0.503300
     21 O4          -2.5540    -0.5870    -8.5850 o          1 KR5      -0.503300
     22 N1          -1.5070     1.5280    -9.3050 nz         1 KR5      -0.135500
     23 H1          -0.6050    -0.8780     2.3130 hc         1 KR5       0.023367
     24 H2          -0.6010     0.8910     2.3180 hc         1 KR5       0.023367
     25 H3          -0.2740     0.0020     3.8120 hc         1 KR5       0.023367
     26 H4           2.2440     0.0030     4.3850 ha         1 KR5       0.148000
     27 H5           5.6700     0.0950     2.4080 hc         1 KR5       0.019700
     28 H6           5.0920    -0.9320     3.7280 hc         1 KR5       0.019700
     29 H7           5.0270     0.8290     3.8840 hc         1 KR5       0.019700
     30 H8           2.5820    -0.8940    -1.3580 hc         1 KR5       0.053200
     31 H9           2.5840     0.8750    -1.3690 hc         1 KR5       0.053200
     32 H10          0.3420    -0.8980    -2.4060 h1         1 KR5       0.040200
     33 H11          0.3440     0.8710    -2.4160 h1         1 KR5       0.040200
     34 H12          2.6980    -0.0390    -3.7380 hn         1 KR5       0.306800
     35 H13         -0.9340    -0.0140    -4.0100 ha         1 KR5       0.138500
     36 H14         -2.1620    -0.0270    -6.1470 ha         1 KR5       0.119500
     37 H15          2.7740    -0.0390    -6.1530 ha         1 KR5       0.138500
     38 H16          1.5350    -0.0520    -8.2850 ha         1 KR5       0.119500
     39 H17         -2.0040     1.5620   -10.1730 hn         1 KR5       0.311133
     40 H18         -2.0400     1.9930    -8.5960 hn         1 KR5       0.311133
     41 H131        -0.6220     1.9830    -9.4090 hn         1 KR5       0.311133
@<TRIPOS>BOND
     1     1     2 2   
     2     2     3 1   
     3     2    10 1   
     4     3     4 1   
     5     3     9 1   
     6     4     5 1   
     7     4     6 2   
     8     5    23 1   
     9     5    24 1   
    10     5    25 1   
    11     6     7 1   
    12     6    26 1   
    13     7     8 1   
    14     7     9 2   
    15     8    27 1   
    16     8    28 1   
    17     8    29 1   
    18    10    11 1   
    19    10    30 1   
    20    10    31 1   
    21    11    12 1   
    22    11    32 1   
    23    11    33 1   
    24    12    13 1   
    25    12    34 1   
    26    13    14 ar  
    27    13    16 ar  
    28    14    15 ar  
    29    14    35 1   
    30    15    18 ar  
    31    15    36 1   
    32    16    17 ar  
    33    16    37 1   
    34    17    18 ar  
    35    17    38 1   
    36    18    19 1   
    37    19    20 2   
    38    19    21 2   
    39    19    22 1   
    40    22    39 1   
    41    22    40 1   
    42    22    41 1   
@<TRIPOS>SUBSTRUCTURE
     1 KR5         1 TEMP              0 ****  ****    0 ROOT
