@<TRIPOS>MOLECULE
molecule
   41    42     1     0     0
SMALL
bcc


@<TRIPOS>ATOM
      1 O25          0.0000     0.0000     0.0000 o          1 KR5      -0.568100
      2 C22          1.2080     0.0000     0.0000 c          1 KR5       0.603900
      3 N27          1.8830     0.0000     1.1660 n          1 KR5       0.066300
      4 C29          1.3320     0.0020     2.4130 cc         1 KR5      -0.026600
      5 C33         -0.1410     0.0050     2.7370 c3         1 KR5      -0.026800
      6 C30          2.3450     0.0020     3.3060 cd         1 KR5      -0.325300
      7 C31          3.5510    -0.0000     2.5920 cd         1 KR5       0.387600
      8 C37          4.9320    -0.0020     3.1950 c3         1 KR5      -0.120400
      9 N28          3.2750    -0.0060     1.3150 nc         1 KR5      -0.529800
     10 C19          1.9600    -0.0090    -1.3060 c3         1 KR5      -0.166400
     11 C18          0.9660    -0.0150    -2.4690 c3         1 KR5       0.224800
     12 N17          1.6970    -0.0230    -3.7380 nu         1 KR5      -0.778600
     13 C8           0.9980    -0.0300    -4.9470 ca         1 KR5       0.284600
     14 C7          -0.3910    -0.0240    -4.9480 ca         1 KR5      -0.212500
     15 C6          -1.0790    -0.0300    -6.1450 ca         1 KR5       0.015000
     16 C9           1.6910    -0.0380    -6.1510 ca         1 KR5      -0.212500
     17 C10          0.9960    -0.0440    -7.3450 ca         1 KR5       0.015000
     18 C5          -0.3870    -0.0430    -7.3420 ca         1 KR5      -0.404500
     19 S2          -1.2680    -0.0510    -8.8680 sy         1 KR5       1.222200
     20 O3          -0.3900    -0.6070    -9.8360 o          1 KR5      -0.529300
     21 O4          -2.5540    -0.5870    -8.5850 o          1 KR5      -0.529300
     22 N1          -1.5070     1.5280    -9.3050 nz         1 KR5      -0.805500
     23 H1          -0.6050    -0.8780     2.3130 hc         1 KR5       0.063033
     24 H2          -0.6010     0.8910     2.3180 hc         1 KR5       0.063033
     25 H3          -0.2740     0.0020     3.8120 hc         1 KR5       0.063033
     26 H4           2.2440     0.0030     4.3850 ha         1 KR5       0.171000
     27 H5           5.6700     0.0950     2.4080 hc         1 KR5       0.060367
     28 H6           5.0920    -0.9320     3.7280 hc         1 KR5       0.060367
     29 H7           5.0270     0.8290     3.8840 hc         1 KR5       0.060367
     30 H8           2.5820    -0.8940    -1.3580 hc         1 KR5       0.090200
     31 H9           2.5840     0.8750    -1.3690 hc         1 KR5       0.090200
     32 H10          0.3420    -0.8980    -2.4060 h1         1 KR5       0.067700
     33 H11          0.3440     0.8710    -2.4160 h1         1 KR5       0.067700
     34 H12          2.6980    -0.0390    -3.7380 hn         1 KR5       0.458800
     35 H13         -0.9340    -0.0140    -4.0100 ha         1 KR5       0.164000
     36 H14         -2.1620    -0.0270    -6.1470 ha         1 KR5       0.152500
     37 H15          2.7740    -0.0390    -6.1530 ha         1 KR5       0.164000
     38 H16          1.5350    -0.0520    -8.2850 ha         1 KR5       0.152500
     39 H17         -2.0040     1.5620   -10.1730 hn         1 KR5       0.488800
     40 H18         -2.0400     1.9930    -8.5960 hn         1 KR5       0.488800
     41 H131        -0.6220     1.9830    -9.4090 hn         1 KR5       0.488800
@<TRIPOS>BOND
     1     8     7 1
     2     9     7 2
     3     9     3 1
     4     7     6 1
     5    10    11 1
     6    10     2 1
     7    11    12 1
     8     3     2 1
     9     3     4 1
    10     6     4 2
    11     2     1 2
    12    12    13 1
    13     4     5 1
    14    13    16 ar
    15    13    14 ar
    16    16    17 ar
    17    14    15 ar
    18    17    18 ar
    19    15    18 ar
    20    18    19 1
    21    22    19 1
    22    20    19 2
    23    19    21 2
    24     5    23 1
    25     5    24 1
    26     5    25 1
    27     6    26 1
    28     8    27 1
    29     8    28 1
    30     8    29 1
    31    10    30 1
    32    10    31 1
    33    11    32 1
    34    11    33 1
    35    12    34 1
    36    14    35 1
    37    15    36 1
    38    16    37 1
    39    17    38 1
    40    22    39 1
    41    22    40 1
    42    41    22 1
@<TRIPOS>SUBSTRUCTURE
     1 KR5         1 TEMP              0 ****  ****    0 ROOT
