@<TRIPOS>MOLECULE
molecule
   33    34     1     0     0
SMALL
bcc


@<TRIPOS>ATOM
      1 C1           0.0000     0.0000     0.0000 ca         1 KRA       0.109100
      2 O1          -0.6810     0.0010    -1.1760 oh         1 KRA      -0.521100
      3 C2           1.3860     0.0000     0.0000 ca         1 KRA      -0.149000
      4 C3           2.0760     0.0000     1.1970 ca         1 KRA      -0.101000
      5 C4           1.3850    -0.0010     2.3940 ca         1 KRA      -0.090300
      6 C5           0.0030     0.0000     2.3970 ca         1 KRA      -0.101000
      7 C6          -0.6910     0.0060     1.2030 ca         1 KRA      -0.149000
      8 C7           2.1400    -0.0020     3.6980 c3         1 KRA      -0.123100
      9 C8           2.3930     1.4180     4.1340 c          1 KRA       0.468100
     10 O2           2.0000     2.3360     3.4560 o          1 KRA      -0.475100
     11 C9           3.1240     1.6890     5.3980 c          1 KRA       0.469100
     12 O3           3.5180     0.7710     6.0770 o          1 KRA      -0.477100
     13 C10          3.3780     3.1090     5.8330 c3         1 KRA      -0.123100
     14 C11          4.1330     3.1090     7.1370 ca         1 KRA      -0.081300
     15 C12          5.5150     3.1080     7.1360 ca         1 KRA      -0.113000
     16 C13          6.2070     3.1080     8.3320 ca         1 KRA      -0.124500
     17 C14          5.5180     3.1080     9.5300 ca         1 KRA      -0.123000
     18 C15          4.1360     3.1090     9.5310 ca         1 KRA      -0.124500
     19 C16          3.4430     3.1130     8.3350 ca         1 KRA      -0.113000
     20 HO1         -0.8400    -0.8870    -1.4480 ho         1 KRA       0.419000
     21 H2           1.9280     0.0010    -0.9380 ha         1 KRA       0.141000
     22 H3           3.1590    -0.0010     1.1970 ha         1 KRA       0.132000
     23 H5          -0.5360     0.0020     3.3370 ha         1 KRA       0.132000
     24 H6          -1.7740     0.0070     1.2060 ha         1 KRA       0.141000
     25 H71          1.5550    -0.5120     4.4540 hc         1 KRA       0.082700
     26 H72          3.0860    -0.5140     3.5680 hc         1 KRA       0.082700
     27 H101         2.4320     3.6210     5.9640 hc         1 KRA       0.082700
     28 H102         3.9620     3.6190     5.0770 hc         1 KRA       0.082700
     29 H12          6.0560     3.1070     6.1970 ha         1 KRA       0.128000
     30 H13          7.2900     3.1070     8.3310 ha         1 KRA       0.130000
     31 H14          6.0600     3.1060    10.4670 ha         1 KRA       0.130000
     32 H15          3.5950     3.1110    10.4700 ha         1 KRA       0.130000
     33 H16          2.3600     3.1140     8.3370 ha         1 KRA       0.128000
@<TRIPOS>BOND
     1     1     2 1
     2     1     3 ar
     3     1     7 ar
     4     2    20 1
     5     3     4 ar
     6     3    21 1
     7     4     5 ar
     8     4    22 1
     9     5     6 ar
    10     5     8 1
    11     6     7 ar
    12     6    23 1
    13     7    24 1
    14     8     9 1
    15     8    25 1
    16     8    26 1
    17     9    10 2
    18     9    11 1
    19    11    12 2
    20    11    13 1
    21    13    14 1
    22    13    27 1
    23    13    28 1
    24    14    15 ar
    25    14    19 ar
    26    15    16 ar
    27    15    29 1
    28    16    17 ar
    29    16    30 1
    30    17    18 ar
    31    17    31 1
    32    18    19 ar
    33    18    32 1
    34    19    33 1
@<TRIPOS>SUBSTRUCTURE
     1 KRA         1 TEMP              0 ****  ****    0 ROOT
