@<TRIPOS>MOLECULE
KRA
   33    34     1     0     0
SMALL
bcc


@<TRIPOS>ATOM
      1 C1         -0.3050    0.4840    3.0610 ca        1 KRA      0.130100
      2 O1         -1.6650    0.6820    3.0910 oh        1 KRA     -0.496100
      3 C2          0.4060    1.1710    2.0620 ca        1 KRA     -0.184000
      4 C3          1.7830    1.0090    1.9820 ca        1 KRA     -0.082000
      5 C4          2.4600    0.1730    2.8830 ca        1 KRA     -0.126300
      6 C5          1.7410   -0.5030    3.8720 ca        1 KRA     -0.082000
      7 C6          0.3590   -0.3540    3.9670 ca        1 KRA     -0.184000
      8 C7          3.9310   -0.0170    2.7590 c3        1 KRA     -0.126100
      9 C8          4.6790    1.2800    2.9030 c         1 KRA      0.490100
     10 O2          4.8100    2.0930    1.9860 o         1 KRA     -0.501100
     11 C9          5.3030    1.5330    4.2590 c         1 KRA      0.491100
     12 O3          6.0060    0.6780    4.8010 o         1 KRA     -0.502100
     13 C10         5.0270    2.8830    4.8640 c3        1 KRA     -0.132100
     14 C11         3.9770    2.8210    5.9160 ca        1 KRA     -0.089300
     15 C12         4.1590    2.0100    7.0440 ca        1 KRA     -0.119000
     16 C13         3.1930    1.9790    8.0470 ca        1 KRA     -0.129000
     17 C14         2.0400    2.7560    7.9330 ca        1 KRA     -0.125000
     18 C15         1.8540    3.5620    6.8110 ca        1 KRA     -0.129000
     19 C16         2.8180    3.5960    5.8040 ca        1 KRA     -0.119000
     20 HO1        -2.0280    0.1550    3.8180 ho        1 KRA      0.420000
     21 H2         -0.1340    1.8240    1.3610 ha        1 KRA      0.144500
     22 H3          2.3580    1.5450    1.2100 ha        1 KRA      0.143500
     23 H5          2.2650   -1.1590    4.5840 ha        1 KRA      0.143500
     24 H6         -0.2040   -0.8860    4.7470 ha        1 KRA      0.144500
     25 H71         4.3050   -0.7430    3.5310 hc        1 KRA      0.083200
     26 H72         4.1620   -0.4460    1.7440 hc        1 KRA      0.083200
     27 H101        5.9820    3.2650    5.3220 hc        1 KRA      0.084700
     28 H102        4.7310    3.5960    4.0470 hc        1 KRA      0.084700
     29 H12         5.0690    1.3940    7.1250 ha        1 KRA      0.141500
     30 H13         3.3430    1.3410    8.9310 ha        1 KRA      0.134000
     31 H14         1.2800    2.7320    8.7270 ha        1 KRA      0.132000
     32 H15         0.9450    4.1750    6.7180 ha        1 KRA      0.134000
     33 H16         2.6650    4.2340    4.9200 ha        1 KRA      0.141500
@<TRIPOS>BOND
     1    1    2 1   
     2    1    3 ar  
     3    1    7 ar  
     4    2   20 1   
     5    3    4 ar  
     6    3   21 1   
     7    4    5 ar  
     8    4   22 1   
     9    5    6 ar  
    10    5    8 1   
    11    6    7 ar  
    12    6   23 1   
    13    7   24 1   
    14    8    9 1   
    15    8   25 1   
    16    8   26 1   
    17    9   10 2   
    18    9   11 1   
    19   11   12 2   
    20   11   13 1   
    21   13   14 1   
    22   13   27 1   
    23   13   28 1   
    24   14   15 ar  
    25   14   19 ar  
    26   15   16 ar  
    27   15   29 1   
    28   16   17 ar  
    29   16   30 1   
    30   17   18 ar  
    31   17   31 1   
    32   18   19 ar  
    33   18   32 1   
    34   19   33 1   
@<TRIPOS>SUBSTRUCTURE
     1 KRA         1 TEMP              0 ****  ****    0 ROOT
