@<TRIPOS>MOLECULE
molecule
   36    38     1     0     0
SMALL
bcc


@<TRIPOS>ATOM
      1 C1           0.0000     0.0000     0.0000 ca         1 KRB      -0.142000
      2 C3           1.3780     0.0000     0.0000 ca         1 KRB      -0.108000
      3 C5           2.0870     0.0000     1.1930 ca         1 KRB      -0.154000
      4 C7           1.4280     0.0010     2.3910 ca         1 KRB      -0.080000
      5 C9           0.0330     0.0060     2.4150 ca         1 KRB      -0.088800
      6 C10         -0.6890    -0.0000     1.2070 ca         1 KRB      -0.036200
      7 N11         -2.0260     0.0000     1.5350 na         1 KRB      -0.179400
      8 C13         -2.1720    -0.0000     2.8950 cc         1 KRB      -0.080100
      9 C15         -0.9660     0.0010     3.4850 cd         1 KRB      -0.157400
     10 C16         -0.6940     0.0020     4.9670 c3         1 KRB      -0.088200
     11 C19         -0.6020    -1.4160     5.4620 c          1 KRB       0.466100
     12 O21         -0.7440    -2.3360     4.6920 o          1 KRB      -0.476100
     13 C23         -0.3370    -1.6880     6.8990 c          1 KRB       0.468100
     14 O24         -0.1950    -0.7680     7.6700 o          1 KRB      -0.480100
     15 C25         -0.2520    -3.1070     7.3960 c3         1 KRB      -0.124100
     16 C28          0.0150    -3.1050     8.8790 ca         1 KRB      -0.080300
     17 C29         -1.0400    -3.1000     9.7720 ca         1 KRB      -0.113000
     18 C31         -0.7940    -3.1000    11.1320 ca         1 KRB      -0.125000
     19 C33          0.5060    -3.1030    11.5990 ca         1 KRB      -0.124000
     20 C35          1.5610    -3.1080    10.7070 ca         1 KRB      -0.125000
     21 C37          1.3150    -3.1130     9.3470 ca         1 KRB      -0.113000
     22 H1          -0.5440    -0.0000    -0.9370 ha         1 KRB       0.125000
     23 H3           1.9140    -0.0010    -0.9420 ha         1 KRB       0.130000
     24 H5           3.1700    -0.0000     1.1750 ha         1 KRB       0.129000
     25 H7           1.9880     0.0010     3.3180 ha         1 KRB       0.127000
     26 H11         -2.7800    -0.0010     0.8760 hn         1 KRB       0.297700
     27 H13         -3.1200    -0.0010     3.4190 h4         1 KRB       0.164000
     28 H161         0.2410     0.5140     5.1610 hc         1 KRB       0.079700
     29 H162        -1.4990     0.5130     5.4810 hc         1 KRB       0.079700
     30 H251        -1.1880    -3.6160     7.1990 hc         1 KRB       0.082200
     31 H252         0.5540    -3.6210     6.8860 hc         1 KRB       0.082200
     32 H29         -2.0590    -3.0980     9.4070 ha         1 KRB       0.128500
     33 H31         -1.6200    -3.0960    11.8320 ha         1 KRB       0.130000
     34 H33          0.6990    -3.1010    12.6650 ha         1 KRB       0.129000
     35 H35          2.5810    -3.1130    11.0730 ha         1 KRB       0.130000
     36 H37          2.1430    -3.1170     8.6470 ha         1 KRB       0.128500
@<TRIPOS>BOND
     1     1     2 ar
     2     1     6 ar
     3     1    22 1
     4     2     3 ar
     5     2    23 1
     6     3     4 ar
     7     3    24 1
     8     4     5 ar
     9     4    25 1
    10     5     6 ar
    11     5     9 1
    12     6     7 1
    13     7     8 1
    14     7    26 1
    15     8     9 2
    16     8    27 1
    17     9    10 1
    18    10    11 1
    19    10    28 1
    20    10    29 1
    21    11    12 2
    22    11    13 1
    23    13    14 2
    24    13    15 1
    25    15    16 1
    26    15    30 1
    27    15    31 1
    28    16    17 ar
    29    16    21 ar
    30    17    18 ar
    31    17    32 1
    32    18    19 ar
    33    18    33 1
    34    19    20 ar
    35    19    34 1
    36    20    21 ar
    37    20    35 1
    38    21    36 1
@<TRIPOS>SUBSTRUCTURE
     1 KRB         1 TEMP              0 ****  ****    0 ROOT
