@<TRIPOS>MOLECULE
KRB
   36    38     1     0     0
SMALL
bcc


@<TRIPOS>ATOM
      1 C1          0.5730   -1.2690    0.9720 ca        1 KRB     -0.144000
      2 C3          1.8890   -1.1020    1.3740 ca        1 KRB     -0.112000
      3 C5          2.2150   -0.4930    2.6000 ca        1 KRB     -0.152000
      4 C7          1.2310   -0.0320    3.4610 ca        1 KRB     -0.089000
      5 C9         -0.1080   -0.1780    3.0930 ca        1 KRB     -0.089800
      6 C10        -0.4350   -0.8050    1.8320 ca        1 KRB     -0.048200
      7 N11        -1.8280   -0.8300    1.7090 na        1 KRB     -0.189400
      8 C13        -2.3820   -0.2320    2.8390 cc        1 KRB     -0.083100
      9 C15        -1.3700    0.1760    3.7120 cd        1 KRB     -0.160400
     10 C16        -1.5470    0.8770    4.9890 c3        1 KRB     -0.100200
     11 C19        -1.7110   -0.0760    6.1440 c         1 KRB      0.484100
     12 O21        -2.7990   -0.3140    6.6710 o         1 KRB     -0.501100
     13 C23        -0.4340   -0.7190    6.6470 c         1 KRB      0.495100
     14 O24         0.5660   -0.0320    6.8630 o         1 KRB     -0.505100
     15 C25        -0.4900   -2.2120    6.8050 c3        1 KRB     -0.129100
     16 C28         0.0680   -2.6930    8.0980 ca        1 KRB     -0.086300
     17 C29        -0.7330   -3.4440    8.9670 ca        1 KRB     -0.115000
     18 C31        -0.2050   -3.9290   10.1630 ca        1 KRB     -0.131000
     19 C33         1.1230   -3.6670   10.5000 ca        1 KRB     -0.125000
     20 C35         1.9220   -2.9140    9.6400 ca        1 KRB     -0.131000
     21 C37         1.3990   -2.4290    8.4430 ca        1 KRB     -0.115000
     22 H1          0.3260   -1.7450    0.0140 ha        1 KRB      0.133000
     23 H3          2.7020   -1.4530    0.7210 ha        1 KRB      0.131000
     24 H5          3.2750   -0.3850    2.8750 ha        1 KRB      0.133000
     25 H7          1.4880    0.4360    4.4240 ha        1 KRB      0.147000
     26 H11        -2.3270   -1.1810    0.9370 hn        1 KRB      0.301700
     27 H13        -3.4650   -0.1370    2.9490 h4        1 KRB      0.172000
     28 H161       -0.6460    1.5200    5.1980 hc        1 KRB      0.083200
     29 H162       -2.4520    1.5440    4.9400 hc        1 KRB      0.083200
     30 H251        0.1010   -2.6620    5.9570 hc        1 KRB      0.083700
     31 H252       -1.5560   -2.5520    6.6960 hc        1 KRB      0.083700
     32 H29        -1.7820   -3.6500    8.7090 ha        1 KRB      0.141000
     33 H31        -0.8390   -4.5190   10.8410 ha        1 KRB      0.132500
     34 H33         1.5370   -4.0510   11.4440 ha        1 KRB      0.131000
     35 H35         2.9680   -2.7010    9.9060 ha        1 KRB      0.132500
     36 H37         2.0210   -1.8180    7.7700 ha        1 KRB      0.141000
@<TRIPOS>BOND
     1    1    2 ar  
     2    1    6 ar  
     3    1   22 1   
     4    2    3 ar  
     5    2   23 1   
     6    3    4 ar  
     7    3   24 1   
     8    4    5 ar  
     9    4   25 1   
    10    5    6 ar  
    11    5    9 1   
    12    6    7 1   
    13    7    8 1   
    14    7   26 1   
    15    8    9 2   
    16    8   27 1   
    17    9   10 1   
    18   10   11 1   
    19   10   28 1   
    20   10   29 1   
    21   11   12 2   
    22   11   13 1   
    23   13   14 2   
    24   13   15 1   
    25   15   16 1   
    26   15   30 1   
    27   15   31 1   
    28   16   17 ar  
    29   16   21 ar  
    30   17   18 ar  
    31   17   32 1   
    32   18   19 ar  
    33   18   33 1   
    34   19   20 ar  
    35   19   34 1   
    36   20   21 ar  
    37   20   35 1   
    38   21   36 1   
@<TRIPOS>SUBSTRUCTURE
     1 KRB         1 TEMP              0 ****  ****    0 ROOT
