@<TRIPOS>MOLECULE
KRC
   65    69     1     0     0
SMALL
bcc


@<TRIPOS>ATOM
      1 C1           0.0000     0.0000     0.0000 ce         1 KRC      -0.405400
      2 C2           1.4050     0.0000     0.0000 cf         1 KRC       0.325100
      3 C3           2.1580     0.0000     1.1840 cf         1 KRC      -0.227000
      4 C4           1.5790     0.1580     2.3760 c2         1 KRC       0.171900
      5 C5           0.0930     0.5190     2.4380 c3         1 KRC      -0.101500
      6 C6          -0.7190     0.2220     1.2040 c          1 KRC       0.656300
      7 O7           1.8810    -0.0140     3.6790 os         1 KRC      -0.174200
      8 C8           0.8250    -0.6480     4.2740 ca         1 KRC       0.203100
      9 C9          -0.3480    -0.3690     3.5760 ca         1 KRC      -0.250300
     10 C10          0.7620    -1.4770     5.4050 ca         1 KRC      -0.220600
     11 C11         -0.4720    -2.0000     5.8180 ca         1 KRC       0.252100
     12 C12         -1.6250    -1.7030     5.1130 ca         1 KRC      -0.333000
     13 C13         -1.5590    -0.8860     3.9880 ca         1 KRC       0.272100
     14 O14         -1.9320     0.1740     1.2380 o          1 KRC      -0.535100
     15 O15         -2.6900    -0.5960     3.2980 oh         1 KRC      -0.441100
     16 O16         -0.5360    -2.7990     6.9130 os         1 KRC      -0.297900
     17 C17          1.9870    -1.7970     6.1540 c          1 KRC       0.608700
     18 N18          2.7170    -2.8790     5.8200 ns         1 KRC      -0.183900
     19 C19         -0.0700     1.9920     2.8190 c3         1 KRC       0.033900
     20 O20          2.3400    -1.0850     7.0740 o          1 KRC      -0.637100
     21 C21         -0.7020    -0.2170    -1.2070 c          1 KRC       0.634300
     22 O22          2.0550     0.0000    -1.1820 oh         1 KRC      -0.453100
     23 C23         -2.2090    -0.2530    -1.2060 c3         1 KRC      -0.090100
     24 O24         -0.0910    -0.3750    -2.2440 o          1 KRC      -0.571100
     25 C25         -1.8240    -3.2970     7.2790 c3         1 KRC       0.245700
     26 C26          3.9360    -3.1970     6.5660 c3         1 KRC       0.092300
     27 C27          4.5610    -4.4460     5.9980 ca         1 KRC      -0.113300
     28 C28          5.4730    -4.3580     4.9910 ca         1 KRC      -0.061300
     29 C29          6.0610    -5.5020     4.4530 ca         1 KRC      -0.101000
     30 C30          5.7400    -6.7400     4.9190 ca         1 KRC      -0.075000
     31 C31          4.8020    -6.8710     5.9580 ca         1 KRC      -0.043000
     32 C32          4.2080    -5.7080     6.5090 ca         1 KRC      -0.015000
     33 C33          4.4460    -8.1320     6.4650 ca         1 KRC      -0.083000
     34 C34          3.5330    -8.2200     7.4710 ca         1 KRC      -0.103000
     35 C35          2.9460    -7.0770     8.0090 ca         1 KRC      -0.091000
     36 C36          3.2750    -5.8380     7.5510 ca         1 KRC      -0.105000
     37 C37          5.8530    -3.0050     4.4510 c3         1 KRC       0.013900
     38 C38          6.9610    -2.4020     5.3160 c3         1 KRC       0.003900
     39 H3           3.2320    -0.1310     1.1290 ha         1 KRC       0.132000
     40 H12         -2.5770    -2.1080     5.4340 ha         1 KRC       0.139000
     41 HO15        -3.4110    -0.5080     3.8980 ho         1 KRC       0.398000
     42 HN18         2.4090    -3.4820     5.0830 hn         1 KRC       0.180500
     43 H19         -0.9110     2.1000     3.4920 hc         1 KRC       0.017033
     44 H19A        -0.2440     2.5790     1.9250 hc         1 KRC       0.017033
     45 H19B         0.8320     2.3400     3.3090 hc         1 KRC       0.017033
     46 HO22         2.5820     0.7790    -1.2510 ho         1 KRC       0.415000
     47 H23         -2.5510    -1.0620    -0.5720 hc         1 KRC       0.030367
     48 H23A        -2.5670    -0.4100    -2.2160 hc         1 KRC       0.030367
     49 H23B        -2.5930     0.6880    -0.8290 hc         1 KRC       0.030367
     50 H25         -2.2230    -3.8960     6.4690 h1         1 KRC       0.001367
     51 H25A        -1.7350    -3.9070     8.1690 h1         1 KRC       0.001367
     52 H25B        -2.4900    -2.4660     7.4750 h1         1 KRC       0.001367
     53 H26          4.6360    -2.3740     6.4830 h1         1 KRC       0.039700
     54 H26A         3.6900    -3.3580     7.6080 h1         1 KRC       0.039700
     55 H29          6.7840    -5.4050     3.6530 ha         1 KRC       0.107000
     56 H30          6.2050    -7.6200     4.4910 ha         1 KRC       0.107000
     57 H33          4.8950    -9.0300     6.0560 ha         1 KRC       0.106000
     58 H34          3.2530    -9.1940     7.8540 ha         1 KRC       0.102000
     59 H35          2.2230    -7.1750     8.8090 ha         1 KRC       0.101000
     60 H36          2.8100    -4.9580     7.9790 ha         1 KRC       0.119000
     61 H37          6.2060    -3.1090     3.4320 hc         1 KRC       0.021200
     62 H37A         4.9870    -2.3530     4.4670 hc         1 KRC       0.021200
     63 H38          6.7340    -1.3630     5.5210 hc         1 KRC       0.007033
     64 H38A         7.0280    -2.9480     6.2490 hc         1 KRC       0.007033
     65 H38B         7.9060    -2.4680     4.7900 hc         1 KRC       0.007033
@<TRIPOS>BOND
     1     1     2 2   
     2     1     6 1   
     3     1    21 1   
     4     2     3 1   
     5     2    22 1   
     6     3     4 2   
     7     3    39 1   
     8     4     5 1   
     9     4     7 1   
    10     5     6 1   
    11     5     9 1   
    12     5    19 1   
    13     6    14 2   
    14     7     8 1   
    15     8     9 ar  
    16     8    10 ar  
    17     9    13 ar  
    18    10    11 ar  
    19    10    17 1   
    20    11    12 ar  
    21    11    16 1   
    22    12    13 ar  
    23    12    40 1   
    24    13    15 1   
    25    15    41 1   
    26    16    25 1   
    27    17    18 1   
    28    17    20 2   
    29    18    26 1   
    30    18    42 1   
    31    19    43 1   
    32    19    44 1   
    33    19    45 1   
    34    21    23 1   
    35    21    24 2   
    36    22    46 1   
    37    23    47 1   
    38    23    48 1   
    39    23    49 1   
    40    25    50 1   
    41    25    51 1   
    42    25    52 1   
    43    26    27 1   
    44    26    53 1   
    45    26    54 1   
    46    27    28 ar  
    47    27    32 ar  
    48    28    29 ar  
    49    28    37 1   
    50    29    30 ar  
    51    29    55 1   
    52    30    31 ar  
    53    30    56 1   
    54    31    32 ar  
    55    31    33 ar  
    56    32    36 ar  
    57    33    34 ar  
    58    33    57 1   
    59    34    35 ar  
    60    34    58 1   
    61    35    36 ar  
    62    35    59 1   
    63    36    60 1   
    64    37    38 1   
    65    37    61 1   
    66    37    62 1   
    67    38    63 1   
    68    38    64 1   
    69    38    65 1   
@<TRIPOS>SUBSTRUCTURE
     1 KRC         1 TEMP              0 ****  ****    0 ROOT
