@<TRIPOS>MOLECULE
KRG
   33    34     1     0     0
SMALL
bcc


@<TRIPOS>ATOM
      1 CAA         0.0180   -0.5190    0.0980 c3        1 KRG     -0.097100
      2 CAB         1.4990   -0.2340   -0.0160 c3        1 KRG      0.128400
      3 OAC         2.0310   -0.3480    1.3070 os        1 KRG     -0.352900
      4 CAD         3.3930   -0.0960    1.4190 ca        1 KRG      0.086100
      5 CAE         4.2310    0.2140    0.3410 ca        1 KRG     -0.161000
      6 CAF         5.5880    0.4430    0.5740 ca        1 KRG     -0.100600
      7 CAG         6.0990    0.3570    1.8710 ca        1 KRG     -0.117000
      8 CAH         5.2600    0.0550    2.9520 ca        1 KRG     -0.032000
      9 CAI         3.8940   -0.1770    2.7260 ca        1 KRG     -0.169000
     10 CAJ         5.7770   -0.0310    4.2960 cc        1 KRG     -0.222600
     11 CAK         6.8410    0.7900    4.9030 cc        1 KRG      0.341600
     12 CAL         7.5870    1.8630    4.2190 c3        1 KRG     -0.139400
     13 NAM         7.0160    0.3960    6.1810 nd        1 KRG     -0.396300
     14 OAN         6.1810   -0.5870    6.4560 os        1 KRG     -0.142100
     15 CAO         5.3910   -0.8850    5.3160 cd        1 KRG      0.240000
     16 CAP         4.4140   -1.9610    5.4610 c3        1 KRG     -0.130400
     17 CAQ         6.5090    0.7900   -0.5920 c         1 KRG      0.909200
     18 OAR         6.0110    0.7940   -1.7520 o         1 KRG     -0.825800
     19 OAS         7.7140    1.0590   -0.3290 o         1 KRG     -0.825800
     20 HAA        -0.1520   -1.5440    0.5050 hc        1 KRG      0.037367
     21 HAAA       -0.4490   -0.4440   -0.9120 hc        1 KRG      0.037367
     22 HAAB       -0.4690    0.2160    0.7820 hc        1 KRG      0.037367
     23 HAB         1.6820    0.8020   -0.4070 h1        1 KRG      0.042700
     24 HABA        2.0030   -0.9780   -0.6880 h1        1 KRG      0.042700
     25 HAE         3.8680    0.2860   -0.6960 ha        1 KRG      0.162000
     26 HAG         7.1790    0.5260    2.0150 ha        1 KRG      0.158000
     27 HAI         3.2170   -0.4120    3.5570 ha        1 KRG      0.125000
     28 HAL         6.9300    2.3450    3.4510 hc        1 KRG      0.063700
     29 HALA        7.9410    2.6420    4.9390 hc        1 KRG      0.063700
     30 HALB        8.4770    1.4290    3.6960 hc        1 KRG      0.063700
     31 HAP         3.4580   -1.5580    5.8830 hc        1 KRG      0.058367
     32 HAPA        4.2000   -2.4090    4.4570 hc        1 KRG      0.058367
     33 HAPB        4.7990   -2.7550    6.1490 hc        1 KRG      0.058367
@<TRIPOS>BOND
     1    1    2 1   
     2    1   20 1   
     3    1   21 1   
     4    1   22 1   
     5    2    3 1   
     6    2   23 1   
     7    2   24 1   
     8    3    4 1   
     9    4    5 ar  
    10    4    9 ar  
    11    5    6 ar  
    12    5   25 1   
    13    6    7 ar  
    14    6   17 1   
    15    7    8 ar  
    16    7   26 1   
    17    8    9 ar  
    18    8   10 1   
    19    9   27 1   
    20   10   11 1   
    21   10   15 2   
    22   11   12 1   
    23   11   13 2   
    24   12   28 1   
    25   12   29 1   
    26   12   30 1   
    27   13   14 1   
    28   14   15 1   
    29   15   16 1   
    30   16   31 1   
    31   16   32 1   
    32   16   33 1   
    33   17   18 1   
    34   17   19 1   
@<TRIPOS>SUBSTRUCTURE
     1 KRG         1 TEMP              0 ****  ****    0 ROOT
