@<TRIPOS>MOLECULE
KRH
   59    63     1     0     0
SMALL
bcc


@<TRIPOS>ATOM
      1 N1           0.0000     0.0000     0.0000 n          1 KRH      -0.098400
      2 C2           1.3420     0.0000     0.0000 c          1 KRH       0.610500
      3 N3           2.0710     0.0000     1.1290 n          1 KRH      -0.016300
      4 C4           1.4490    -0.0020     2.3770 cc         1 KRH       0.378200
      5 C5           0.0290    -0.0010     2.4200 cc         1 KRH      -0.439900
      6 C6          -0.7050    -0.0000     1.1520 c          1 KRH       0.684100
      7 C7           3.5340    -0.0000     1.0460 c3         1 KRH       0.029000
      8 C8           4.0430     1.4420     1.0190 c3         1 KRH      -0.069700
      9 C9           5.5730     1.4450     1.0590 c3         1 KRH      -0.000100
     10 C10          3.5660     2.1270    -0.2640 c3         1 KRH      -0.000100
     11 O11          1.9220     0.0010    -1.0680 o          1 KRH      -0.708500
     12 C12         -0.7170     0.0070    -1.2780 c3         1 KRH       0.071300
     13 O13         -1.9210    -0.0000     1.1370 o          1 KRH      -0.669500
     14 C14         -0.3430    -0.0020     3.7620 cd         1 KRH      -0.020300
     15 N15          0.8050    -0.0030     4.4900 na         1 KRH       0.538400
     16 N16          1.8910    -0.0020     3.6060 nd         1 KRH      -0.670800
     17 C17         -1.7150    -0.0020     4.2900 cd         1 KRH      -0.373600
     18 N20         -3.5600     0.5980     5.2920 nc         1 KRH      -0.617000
     19 C21         -3.7660    -0.5940     4.7980 cd         1 KRH       0.229400
     20 C23          0.8930    -0.0040     5.9520 c3         1 KRH       0.032600
     21 C24          1.0510    -1.4190     6.4440 ca         1 KRH      -0.125300
     22 C25         -0.0410    -2.1370     6.8260 ca         1 KRH      -0.080000
     23 C26          0.0870    -3.4480     7.2840 ca         1 KRH      -0.112000
     24 C27          1.3060    -4.0470     7.3630 ca         1 KRH      -0.066000
     25 C28          2.4560    -3.3370     6.9780 ca         1 KRH      -0.039000
     26 C29          2.3260    -2.0060     6.5070 ca         1 KRH      -0.012000
     27 N29         -2.6470    -1.0110     4.1680 na         1 KRH       0.339100
     28 C30          3.4760    -1.2980     6.1190 ca         1 KRH      -0.097000
     29 C31          4.6950    -1.8990     6.1940 ca         1 KRH      -0.087000
     30 C32          4.8230    -3.2090     6.6520 ca         1 KRH      -0.096000
     31 C33          3.7310    -3.9220     7.0460 ca         1 KRH      -0.087000
     32 C34         -2.3170     0.9940     5.0040 cc         1 KRH       0.346200
     33 C35         -2.4600    -2.2920     3.4830 c3         1 KRH      -0.024400
     34 H7           3.9440    -0.5120     1.9080 h1         1 KRH       0.048200
     35 H7A          3.8440    -0.5100     0.1420 h1         1 KRH       0.048200
     36 H8           3.6590     1.9770     1.8790 hc         1 KRH       0.030700
     37 H9           5.9120     0.9260     1.9480 hc         1 KRH       0.008867
     38 H9A          5.9580     0.9430     0.1790 hc         1 KRH       0.008867
     39 H9B          5.9320     2.4670     1.0790 hc         1 KRH       0.008867
     40 H10          3.7190     1.4630    -1.1070 hc         1 KRH       0.008867
     41 H10A         2.5130     2.3630    -0.1770 hc         1 KRH       0.008867
     42 H10B         4.1290     3.0400    -0.4170 hc         1 KRH       0.008867
     43 H12         -0.2840    -0.7340    -1.9390 h1         1 KRH       0.028700
     44 H12A        -0.6350     0.9880    -1.7320 h1         1 KRH       0.028700
     45 H12B        -1.7610    -0.2260    -1.1070 h1         1 KRH       0.028700
     46 H21         -4.6870    -1.1590     4.8820 h5         1 KRH       0.025100
     47 H23          1.7470     0.5850     6.2640 h1         1 KRH       0.053700
     48 H23A        -0.0110     0.4240     6.3690 h1         1 KRH       0.053700
     49 H25         -1.0230    -1.6840     6.7720 ha         1 KRH       0.107000
     50 H26         -0.7980    -3.9970     7.5810 ha         1 KRH       0.105000
     51 H27          1.3890    -5.0660     7.7210 ha         1 KRH       0.108000
     52 H30          3.3930    -0.2790     5.7610 ha         1 KRH       0.125000
     53 H31          5.5790    -1.3540     5.8860 ha         1 KRH       0.104000
     54 H32          5.8040    -3.6640     6.7020 ha         1 KRH       0.103000
     55 H33          3.8450    -4.9400     7.4000 ha         1 KRH       0.107000
     56 H34         -1.8670     1.9390     5.2860 h4         1 KRH       0.004100
     57 H35         -1.4030    -2.4580     3.3100 h1         1 KRH       0.031033
     58 H35A        -2.9820    -2.2740     2.5340 h1         1 KRH       0.031033
     59 H35B        -2.8550    -3.0910     4.0980 h1         1 KRH       0.031033
@<TRIPOS>BOND
     1     1     2 1   
     2     1     6 1   
     3     1    12 1   
     4     2     3 1   
     5     2    11 2   
     6     3     4 1   
     7     3     7 1   
     8     4     5 1   
     9     4    16 2   
    10     5     6 1   
    11     5    14 2   
    12     6    13 2   
    13     7     8 1   
    14     7    34 1   
    15     7    35 1   
    16     8     9 1   
    17     8    10 1   
    18     8    36 1   
    19     9    37 1   
    20     9    38 1   
    21     9    39 1   
    22    10    40 1   
    23    10    41 1   
    24    10    42 1   
    25    12    43 1   
    26    12    44 1   
    27    12    45 1   
    28    14    15 1   
    29    14    17 1   
    30    15    16 1   
    31    15    20 1   
    32    17    27 1   
    33    17    32 2   
    34    18    19 2   
    35    18    32 1   
    36    19    27 1   
    37    19    46 1   
    38    20    21 1   
    39    20    47 1   
    40    20    48 1   
    41    21    22 ar  
    42    21    26 ar  
    43    22    23 ar  
    44    22    49 1   
    45    23    24 ar  
    46    23    50 1   
    47    24    25 ar  
    48    24    51 1   
    49    25    26 ar  
    50    25    31 ar  
    51    26    28 ar  
    52    27    33 1   
    53    28    29 ar  
    54    28    52 1   
    55    29    30 ar  
    56    29    53 1   
    57    30    31 ar  
    58    30    54 1   
    59    31    55 1   
    60    32    56 1   
    61    33    57 1   
    62    33    58 1   
    63    33    59 1   
@<TRIPOS>SUBSTRUCTURE
     1 KRH         1 TEMP              0 ****  ****    0 ROOT
