@<TRIPOS>MOLECULE
molecule
   34    33     1     0     0
SMALL
bcc


@<TRIPOS>ATOM
      1 O            0.0000     0.0000     0.0000 o          1 KRI      -0.769800
      2 C            1.2080     0.0000     0.0000 c          1 KRI       0.866600
      3 OXT          1.8780    -0.0030    -1.1620 o          1 KRI      -0.769800
      4 CA           1.9610     0.0000     1.3050 c3         1 KRI      -0.016500
      5 N            1.1680     0.6950     2.3280 nz         1 KRI      -0.791600
      6 CB           2.2150    -1.4410     1.7500 c3         1 KRI      -0.077400
      7 CG           2.9800    -1.4410     3.0730 c3         1 KRI      -0.011300
      8 SD           3.2810    -3.1490     3.6010 ss         1 KRI      -0.311200
      9 C5           4.1750    -2.8510     5.1490 c3         1 KRI      -0.020300
     10 C4           4.5450    -4.1870     5.7920 c3         1 KRI       0.173100
     11 O4           5.3740    -4.9330     4.8990 oh         1 KRI      -0.606800
     12 C3           5.2990    -3.9350     7.0980 c3         1 KRI       0.057100
     13 O3           4.4680    -3.1910     7.9910 oh         1 KRI      -0.581800
     14 C2           5.6630    -5.2530     7.7320 c          1 KRI       0.533100
     15 O2           4.9020    -5.7790     8.5080 o          1 KRI      -0.459100
     16 C1           6.9740    -5.9140     7.3970 c3         1 KRI       0.043400
     17 O1           7.0880    -7.1420     8.1170 oh         1 KRI      -0.584800
     18 HA           2.9080     0.5100     1.1740 hx         1 KRI       0.104700
     19 HN1          0.4840     0.0680     2.7020 hn         1 KRI       0.439467
     20 HN2          0.7090     1.4830     1.9160 hn         1 KRI       0.439467
     21 HB1          1.2680    -1.9510     1.8800 hc         1 KRI       0.099700
     22 HB2          2.8000    -1.9530     0.9950 hc         1 KRI       0.099700
     23 HG1          2.3950    -0.9280     3.8280 h1         1 KRI       0.044200
     24 HG2          3.9270    -0.9310     2.9430 h1         1 KRI       0.044200
     25 H51          3.5450    -2.2860     5.8260 h1         1 KRI       0.071700
     26 H52          5.0770    -2.2880     4.9420 h1         1 KRI       0.071700
     27 H4           3.6420    -4.7490     6.0000 h1         1 KRI       0.072700
     28 HO4          4.8320    -5.4450     4.3220 ho         1 KRI       0.427000
     29 H3           6.2020    -3.3730     6.8910 h1         1 KRI       0.053700
     30 HO3          5.0080    -2.6620     8.5560 ho         1 KRI       0.413000
     31 H11          7.0160    -6.1150     6.3330 h1         1 KRI       0.050700
     32 H12          7.7900    -5.2570     7.6730 h1         1 KRI       0.050700
     33 HO1          7.9430    -7.5120     7.9750 ho         1 KRI       0.407000
     34 HN3          1.7730     1.0090     3.0610 hn         1 KRI       0.439467
@<TRIPOS>BOND
     1     1     2 1
     2     2     3 1
     3     2     4 1
     4     4     5 1
     5     4     6 1
     6     4    18 1
     7     5    19 1
     8     5    20 1
     9     6     7 1
    10     6    21 1
    11     6    22 1
    12     7     8 1
    13     7    23 1
    14     7    24 1
    15     8     9 1
    16     9    10 1
    17     9    25 1
    18     9    26 1
    19    10    11 1
    20    10    12 1
    21    10    27 1
    22    11    28 1
    23    12    13 1
    24    12    14 1
    25    12    29 1
    26    13    30 1
    27    14    15 2
    28    14    16 1
    29    16    17 1
    30    16    31 1
    31    16    32 1
    32    17    33 1
    33    34     5 1
@<TRIPOS>SUBSTRUCTURE
     1 KRI         1 TEMP              0 ****  ****    0 ROOT
