@<TRIPOS>MOLECULE
KRJ
   53    56     1     0     0
SMALL
bcc


@<TRIPOS>ATOM
      1 N01         -1.5020    -0.0110    -2.0830 n1         1 KRJ      -0.378800
      2 C02         -0.8450    -0.0010    -1.1560 cg         1 KRJ       0.160800
      3 C03          0.0000     0.0000     0.0000 cc         1 KRJ       0.411300
      4 C04          1.3820     0.0000     0.0000 cd         1 KRJ      -0.402600
      5 N05          1.7730     0.0000     1.2910 na         1 KRJ       0.354100
      6 C06          0.6440    -0.0000     2.0640 cd         1 KRJ       0.108000
      7 N07         -0.4070     0.0050     1.2790 nc         1 KRJ      -0.559000
      8 C08          0.6150    -0.0010     3.5390 c          1 KRJ       0.509600
      9 O09          1.6550    -0.0010     4.1670 o          1 KRJ      -0.663100
     10 N10         -0.5660    -0.0010     4.1880 ns         1 KRJ       0.021900
     11 C11         -0.5970    -0.1180     5.5790 ca         1 KRJ      -0.098400
     12 C12          0.4510    -0.7310     6.2500 ca         1 KRJ      -0.115000
     13 C13          0.4190    -0.8460     7.6270 ca         1 KRJ      -0.082000
     14 C14         -0.6570    -0.3530     8.3450 ca         1 KRJ      -0.095300
     15 C15         -1.7080     0.2590     7.6930 ca         1 KRJ      -0.073000
     16 C16         -1.6850     0.3880     6.3040 ca         1 KRJ      -0.071800
     17 C17         -2.8040     1.0470     5.6000 ce         1 KRJ      -0.093400
     18 C18         -2.6140     2.2600     5.1390 c2         1 KRJ      -0.138200
     19 C19         -3.6610     3.0530     4.4140 c3         1 KRJ       0.024800
     20 C20         -4.7790     2.1280     3.9270 c3         1 KRJ      -0.028400
     21 C21         -5.2290     1.2490     5.1020 c3         1 KRJ      -0.025400
     22 C22         -4.0900     0.2880     5.4510 c3         1 KRJ       0.037800
     23 C23         -0.6820    -0.4860     9.8460 c3         1 KRJ       0.007600
     24 C24          0.5270     0.2400    10.4430 c3         1 KRJ      -0.024900
     25 C25          0.5310     0.0510    11.9610 c3         1 KRJ       0.147800
     26 N26          0.5930    -1.3820    12.2770 n7         1 KRJ      -0.580200
     27 C27         -0.5820    -2.0920    11.7540 c3         1 KRJ       0.147800
     28 C28         -0.6190    -1.9660    10.2290 c3         1 KRJ      -0.024900
     29 HN05         2.7170    -0.0020     1.6230 hn         1 KRJ       0.138700
     30 H04          2.0280     0.0000    -0.8700 h4         1 KRJ       0.165000
     31 HN10        -1.4220     0.0300     3.6700 hn         1 KRJ       0.192500
     32 H12          1.2960    -1.1190     5.6940 ha         1 KRJ       0.152000
     33 H13          1.2390    -1.3250     8.1470 ha         1 KRJ       0.115000
     34 H15         -2.5460     0.6460     8.2590 ha         1 KRJ       0.111000
     35 H18         -1.6430     2.7170     5.2900 ha         1 KRJ       0.105000
     36 H19         -4.0780     3.7930     5.0870 hc         1 KRJ       0.020700
     37 H19A        -3.2100     3.5480     3.5630 hc         1 KRJ       0.020700
     38 H20         -5.6140     2.7210     3.5760 hc         1 KRJ       0.017700
     39 H20A        -4.4080     1.5000     3.1260 hc         1 KRJ       0.017700
     40 H21         -6.1080     0.6830     4.8170 hc         1 KRJ       0.016700
     41 H21A        -5.4530     1.8740     5.9580 hc         1 KRJ       0.016700
     42 H22         -4.3180    -0.2150     6.3830 hc         1 KRJ       0.020700
     43 H22A        -3.9830    -0.4430     4.6590 hc         1 KRJ       0.020700
     44 H23         -1.5930    -0.0500    10.2380 hc         1 KRJ       0.027700
     45 H24          0.4650     1.2960    10.2110 hc         1 KRJ       0.024700
     46 H24A         1.4380    -0.1740    10.0260 hc         1 KRJ       0.024700
     47 H25         -0.3750     0.4730    12.3780 h1         1 KRJ       0.004200
     48 H25A         1.3950     0.5500    12.3830 h1         1 KRJ       0.004200
     49 HN26         0.6420    -1.5030    13.2690 hn         1 KRJ       0.249800
     50 H27         -1.4810    -1.6570    12.1740 h1         1 KRJ       0.004200
     51 H27A        -0.5200    -3.1390    12.0270 h1         1 KRJ       0.004200
     52 H28         -1.4960    -2.4750     9.8470 hc         1 KRJ       0.024700
     53 H28A         0.2750    -2.4100     9.8090 hc         1 KRJ       0.024700
@<TRIPOS>BOND
     1     1     2 3   
     2     2     3 1   
     3     3     4 2   
     4     3     7 1   
     5     4     5 1   
     6     4    30 1   
     7     5     6 1   
     8     5    29 1   
     9     6     7 2   
    10     6     8 1   
    11     8     9 2   
    12     8    10 1   
    13    10    11 1   
    14    10    31 1   
    15    11    12 ar  
    16    11    16 ar  
    17    12    13 ar  
    18    12    32 1   
    19    13    14 ar  
    20    13    33 1   
    21    14    15 ar  
    22    14    23 1   
    23    15    16 ar  
    24    15    34 1   
    25    16    17 1   
    26    17    18 2   
    27    17    22 1   
    28    18    19 1   
    29    18    35 1   
    30    19    20 1   
    31    19    36 1   
    32    19    37 1   
    33    20    21 1   
    34    20    38 1   
    35    20    39 1   
    36    21    22 1   
    37    21    40 1   
    38    21    41 1   
    39    22    42 1   
    40    22    43 1   
    41    23    24 1   
    42    23    28 1   
    43    23    44 1   
    44    24    25 1   
    45    24    45 1   
    46    24    46 1   
    47    25    26 1   
    48    25    47 1   
    49    25    48 1   
    50    26    27 1   
    51    26    49 1   
    52    27    28 1   
    53    27    50 1   
    54    27    51 1   
    55    28    52 1   
    56    28    53 1   
@<TRIPOS>SUBSTRUCTURE
     1 KRJ         1 TEMP              0 ****  ****    0 ROOT
