@<TRIPOS>MOLECULE
KRL
   56    57     1     0     0
SMALL
bcc


@<TRIPOS>ATOM
      1 C01         0.2300    0.8890   -0.3690 c3        1 KRL      0.147100
      2 N02         1.5650    0.3640   -0.1900 n3        1 KRL     -0.719600
      3 C03         1.9790    0.2780    1.2000 c3        1 KRL      0.160300
      4 C04         1.4460   -0.9510    1.9720 c3        1 KRL      0.151800
      5 N05         1.6830   -2.1940    1.2580 nh        1 KRL     -0.631000
      6 C06         1.2640   -2.1520   -0.1360 c3        1 KRL      0.151800
      7 C07         1.7930   -0.9000   -0.8720 c3        1 KRL      0.160300
      8 C08         1.3600   -3.3860    1.9540 ca        1 KRL      0.130600
      9 C09         0.7080   -3.3870    3.2050 ca        1 KRL     -0.157000
     10 C10         0.4960   -4.5640    3.9050 ca        1 KRL     -0.112000
     11 C11         0.9020   -5.8110    3.3910 ca        1 KRL      0.040600
     12 N12         0.7050   -7.0050    4.1100 n         1 KRL     -0.457100
     13 C13        -0.3240   -7.2320    5.0070 c         1 KRL      0.600600
     14 O14        -1.1710   -6.3740    5.3230 o         1 KRL     -0.579100
     15 C15        -0.3960   -8.5730    5.6270 cc        1 KRL      0.202200
     16 C16        -1.2890   -9.0770    6.5580 cd        1 KRL     -0.181300
     17 C17        -0.8980  -10.4420    6.8110 cd        1 KRL     -0.207300
     18 C18         0.2110  -10.6880    6.0190 cc        1 KRL      0.350700
     19 C19         1.0210  -11.8220    5.8380 cg        1 KRL      0.141800
     20 N20         1.6800  -12.7710    5.7030 n1        1 KRL     -0.310800
     21 O21         0.5460   -9.5470    5.2730 os        1 KRL     -0.339800
     22 C22         1.5530   -5.8280    2.1210 ca        1 KRL      0.016600
     23 C23         1.7780   -4.6290    1.4330 ca        1 KRL     -0.136000
     24 N24         2.0120   -7.0670    1.5370 nh        1 KRL     -0.347800
     25 C25         3.0420   -7.7500    1.9470 c1        1 KRL     -0.123500
     26 C26         5.9920  -10.7540    0.6280 c2        1 KRL     -0.229500
     27 C27         5.1470   -9.8280    0.1960 c2        1 KRL     -0.229500
     28 C28         1.6050   -8.8580   -0.1690 c3        1 KRL     -0.091100
     29 C29         1.2110   -7.5050    0.3920 c3        1 KRL      0.211800
     30 H01         0.1720    1.9000    0.1130 h1        1 KRL      0.033367
     31 H01A        0.0320    1.0050   -1.4670 h1        1 KRL      0.033367
     32 H01B       -0.5730    0.2370    0.0720 h1        1 KRL      0.033367
     33 H03         1.6460    1.1990    1.7510 h1        1 KRL      0.061950
     34 H03A        3.1050    0.2510    1.2050 h1        1 KRL      0.061950
     35 H04         0.3470   -0.7950    2.1790 h1        1 KRL      0.041450
     36 H04A        1.9860   -1.0050    2.9580 h1        1 KRL      0.041450
     37 H06         0.1380   -2.1750   -0.2210 h1        1 KRL      0.041450
     38 H06A        1.6690   -3.0580   -0.6640 h1        1 KRL      0.041450
     39 H07         1.3140   -0.8720   -1.8880 h1        1 KRL      0.061950
     40 H07A        2.9070   -1.0000   -1.0070 h1        1 KRL      0.061950
     41 H09         0.3530   -2.4480    3.6580 ha        1 KRL      0.142000
     42 H10        -0.0210   -4.5150    4.8800 ha        1 KRL      0.169000
     43 HN12        1.3040   -7.7740    3.8940 hn        1 KRL      0.339500
     44 H16        -2.1260   -8.5460    7.0110 ha        1 KRL      0.188000
     45 H17        -1.3880  -11.1330    7.4950 ha        1 KRL      0.180000
     46 H23         2.3090   -4.6660    0.4660 ha        1 KRL      0.148000
     47 H25         3.6020   -7.3450    2.8160 ha        1 KRL     -0.002500
     48 H25A        6.0500  -11.0550    1.6830 ha        1 KRL      0.113750
     49 H26         4.4440   -9.2940    0.8600 ha        1 KRL      0.113750
     50 H26A        6.6890  -11.2830   -0.0350 ha        1 KRL      0.113750
     51 H27         1.4760   -9.6600    0.5970 hc        1 KRL      0.051700
     52 H27A        5.0920   -9.5310   -0.8610 ha        1 KRL      0.113750
     53 H28         0.9510   -9.0800   -1.0460 hc        1 KRL      0.051700
     54 H28A        1.3120   -6.7200   -0.4120 h1        1 KRL      0.047200
     55 H29         2.6740   -8.8640   -0.4930 hc        1 KRL      0.051700
     56 H29A        0.1320   -7.5310    0.7180 h1        1 KRL      0.047200
@<TRIPOS>BOND
     1    1    2 1
     2    1   30 1
     3    1   31 1
     4    1   32 1
     5    2    3 1
     6    2    7 1
     7    3    4 1
     8    3   33 1
     9    3   34 1
    10    4    5 1
    11    4   35 1
    12    4   36 1
    13    5    6 1
    14    5    8 1
    15    6    7 1
    16    6   37 1
    17    6   38 1
    18    7   39 1
    19    7   40 1
    20    8    9 ar
    21    8   23 ar
    22    9   10 ar
    23    9   41 1
    24   10   11 ar
    25   10   42 1
    26   11   12 1
    27   11   22 ar
    28   12   13 1
    29   12   43 1
    30   13   14 2
    31   13   15 1
    32   15   16 2
    33   15   21 1
    34   16   17 1
    35   16   44 1
    36   17   18 2
    37   17   45 1
    38   18   19 1
    39   18   21 1
    40   19   20 3
    41   22   23 ar
    42   22   24 1
    43   23   46 1
    44   24   25 3
    45   24   29 1
    46   25   47 1
    47   26   27 2
    48   26   48 1
    49   26   50 1
    50   27   49 1
    51   27   52 1
    52   28   29 1
    53   28   51 1
    54   28   53 1
    55   28   55 1
    56   29   54 1
    57   29   56 1
@<TRIPOS>SUBSTRUCTURE
     1 KRL         1 TEMP              0 ****  ****    0 ROOT
