@<TRIPOS>MOLECULE
KRM
   43    46     1     0     0
SMALL
bcc


@<TRIPOS>ATOM
      1 C24          0.0000     0.0000     0.0000 c3         1 KRM       0.101300
      2 C23          1.5310     0.0000     0.0000 c3         1 KRM       0.211900
      3 O22          2.0020     0.0000     1.3500 os         1 KRM      -0.411600
      4 C21          1.5500    -1.1190     2.1180 c3         1 KRM       0.211900
      5 C20          0.0190    -1.1310     2.1380 c3         1 KRM       0.101300
      6 N19         -0.4850    -1.1630     0.7580 nh         1 KRM      -0.445300
      7 C16         -1.8820    -1.2290     0.7350 cc         1 KRM       0.479200
      8 C15         -2.6660    -2.2100     1.3570 cc         1 KRM      -0.326300
      9 N17         -2.6820    -0.3790     0.1330 nd         1 KRM      -0.697800
     10 N18         -4.0050    -0.7890     0.3420 na         1 KRM       0.456400
     11 C14         -3.9760    -1.9210     1.1010 cd         1 KRM      -0.179300
     12 C11         -5.1500    -2.6940     1.5650 ca         1 KRM      -0.018000
     13 C10         -6.4380    -2.2810     1.2250 ca         1 KRM      -0.079000
     14 C9          -7.5290    -3.0040     1.6570 ca         1 KRM      -0.116500
     15 C12         -4.9700    -3.8420     2.3370 ca         1 KRM      -0.079000
     16 C13         -6.0660    -4.5590     2.7670 ca         1 KRM      -0.116500
     17 C8          -7.3470    -4.1410     2.4320 ca         1 KRM       0.113100
     18 O7          -8.4250    -4.8520     2.8570 os         1 KRM      -0.219200
     19 C6          -8.6940    -4.8640     4.1890 ca         1 KRM       0.140100
     20 C1          -7.9610    -4.0670     5.0540 ca         1 KRM      -0.169500
     21 C5          -9.7090    -5.6710     4.6850 ca         1 KRM      -0.169500
     22 C4          -9.9810    -5.6820     6.0380 ca         1 KRM      -0.060500
     23 C3          -9.2440    -4.8910     6.9000 ca         1 KRM      -0.139000
     24 C2          -8.2360    -4.0820     6.4080 ca         1 KRM      -0.060500
     25 H241        -0.3610     0.9090     0.4650 h1         1 KRM       0.028200
     26 H242        -0.3600    -0.0590    -1.0200 h1         1 KRM       0.028200
     27 H231         1.8910     0.8860    -0.5080 h1         1 KRM       0.013450
     28 H232         1.8910    -0.8860    -0.5080 h1         1 KRM       0.013450
     29 H211         1.9110    -2.0350     1.6670 h1         1 KRM       0.013450
     30 H212         1.9230    -1.0350     3.1310 h1         1 KRM       0.013450
     31 H201        -0.3420    -0.2370     2.6330 h1         1 KRM       0.028200
     32 H202        -0.3270    -2.0090     2.6690 h1         1 KRM       0.028200
     33 H15         -2.2980    -3.0490     1.9360 ha         1 KRM       0.143000
     34 H18         -4.8250    -0.3310    -0.0020 hn         1 KRM       0.149700
     35 H10         -6.5810    -1.3930     0.6210 ha         1 KRM       0.109000
     36 H12         -3.9710    -4.1690     2.5990 ha         1 KRM       0.109000
     37 H9          -8.5300    -2.6820     1.3960 ha         1 KRM       0.120500
     38 H13         -5.9280    -5.4490     3.3690 ha         1 KRM       0.120500
     39 H1          -7.1710    -3.4340     4.6690 ha         1 KRM       0.121000
     40 H5         -10.2870    -6.2910     4.0100 ha         1 KRM       0.121000
     41 H2          -7.6620    -3.4610     7.0850 ha         1 KRM       0.103000
     42 H4         -10.7720    -6.3140     6.4260 ha         1 KRM       0.103000
     43 H3          -9.4600    -4.9010     7.9620 ha         1 KRM       0.106000
@<TRIPOS>BOND
     1     1     2 1   
     2     1     6 1   
     3     1    25 1   
     4     1    26 1   
     5     2     3 1   
     6     2    27 1   
     7     2    28 1   
     8     3     4 1   
     9     4     5 1   
    10     4    29 1   
    11     4    30 1   
    12     5     6 1   
    13     5    31 1   
    14     5    32 1   
    15     6     7 1   
    16     7     8 1   
    17     7     9 2   
    18     8    11 2   
    19     8    33 1   
    20     9    10 1   
    21    10    11 1   
    22    10    34 1   
    23    11    12 1   
    24    12    13 ar  
    25    12    15 ar  
    26    13    14 ar  
    27    13    35 1   
    28    14    17 ar  
    29    14    37 1   
    30    15    16 ar  
    31    15    36 1   
    32    16    17 ar  
    33    16    38 1   
    34    17    18 1   
    35    18    19 1   
    36    19    20 ar  
    37    19    21 ar  
    38    20    24 ar  
    39    20    39 1   
    40    21    22 ar  
    41    21    40 1   
    42    22    23 ar  
    43    22    42 1   
    44    23    24 ar  
    45    23    43 1   
    46    24    41 1   
@<TRIPOS>SUBSTRUCTURE
     1 KRM         1 TEMP              0 ****  ****    0 ROOT
