@<TRIPOS>MOLECULE
molecule
   43    46     1     0     0
SMALL
bcc


@<TRIPOS>ATOM
      1 C24          0.0000     0.0000     0.0000 c3         1 KRM       0.128800
      2 C23          1.5310     0.0000     0.0000 c3         1 KRM       0.136400
      3 O22          2.0020     0.0000     1.3500 os         1 KRM      -0.424600
      4 C21          1.5500    -1.1190     2.1180 c3         1 KRM       0.136400
      5 C20          0.0190    -1.1310     2.1380 c3         1 KRM       0.128800
      6 N19         -0.4850    -1.1630     0.7580 nh         1 KRM      -0.676300
      7 C16         -1.8820    -1.2290     0.7350 cc         1 KRM       0.529200
      8 C15         -2.6660    -2.2100     1.3570 cc         1 KRM      -0.332300
      9 N17         -2.6820    -0.3790     0.1330 nd         1 KRM      -0.545800
     10 N18         -4.0050    -0.7890     0.3420 na         1 KRM      -0.040600
     11 C14         -3.9760    -1.9210     1.1010 cd         1 KRM      -0.013300
     12 C11         -5.1500    -2.6940     1.5650 ca         1 KRM      -0.029000
     13 C10         -6.4380    -2.2810     1.2250 ca         1 KRM      -0.102500
     14 C9          -7.5290    -3.0040     1.6570 ca         1 KRM      -0.139000
     15 C12         -4.9700    -3.8420     2.3370 ca         1 KRM      -0.102500
     16 C13         -6.0660    -4.5590     2.7670 ca         1 KRM      -0.139000
     17 C8          -7.3470    -4.1410     2.4320 ca         1 KRM       0.112100
     18 O7          -8.4250    -4.8520     2.8570 os         1 KRM      -0.247200
     19 C6          -8.6940    -4.8640     4.1890 ca         1 KRM       0.132100
     20 C1          -7.9610    -4.0670     5.0540 ca         1 KRM      -0.180500
     21 C5          -9.7090    -5.6710     4.6850 ca         1 KRM      -0.180500
     22 C4          -9.9810    -5.6820     6.0380 ca         1 KRM      -0.094000
     23 C3          -9.2440    -4.8910     6.9000 ca         1 KRM      -0.160000
     24 C2          -8.2360    -4.0820     6.4080 ca         1 KRM      -0.094000
     25 H241        -0.3610     0.9090     0.4650 h1         1 KRM       0.055700
     26 H242        -0.3600    -0.0590    -1.0200 h1         1 KRM       0.055700
     27 H231         1.8910     0.8860    -0.5080 h1         1 KRM       0.055200
     28 H232         1.8910    -0.8860    -0.5080 h1         1 KRM       0.055200
     29 H211         1.9110    -2.0350     1.6670 h1         1 KRM       0.055200
     30 H212         1.9230    -1.0350     3.1310 h1         1 KRM       0.055200
     31 H201        -0.3420    -0.2370     2.6330 h1         1 KRM       0.055700
     32 H202        -0.3270    -2.0090     2.6690 h1         1 KRM       0.055700
     33 H15         -2.2980    -3.0490     1.9360 ha         1 KRM       0.158000
     34 H18         -4.8250    -0.3310    -0.0020 hn         1 KRM       0.331700
     35 H10         -6.5810    -1.3930     0.6210 ha         1 KRM       0.137500
     36 H12         -3.9710    -4.1690     2.5990 ha         1 KRM       0.137500
     37 H9          -8.5300    -2.6820     1.3960 ha         1 KRM       0.150000
     38 H13         -5.9280    -5.4490     3.3690 ha         1 KRM       0.150000
     39 H1          -7.1710    -3.4340     4.6690 ha         1 KRM       0.144000
     40 H5         -10.2870    -6.2910     4.0100 ha         1 KRM       0.144000
     41 H2          -7.6620    -3.4610     7.0850 ha         1 KRM       0.134000
     42 H4         -10.7720    -6.3140     6.4260 ha         1 KRM       0.134000
     43 H3          -9.4600    -4.9010     7.9620 ha         1 KRM       0.132000
@<TRIPOS>BOND
     1     1     2 1
     2     1     6 1
     3     2     3 1
     4     3     4 1
     5     4     5 1
     6     5     6 1
     7     6     7 1
     8     7     8 1
     9     7     9 2
    10     8    11 2
    11     9    10 1
    12    10    11 1
    13    11    12 1
    14    12    13 ar
    15    12    15 ar
    16    13    14 ar
    17    14    17 ar
    18    15    16 ar
    19    16    17 ar
    20    17    18 1
    21    18    19 1
    22    19    20 ar
    23    19    21 ar
    24    20    24 ar
    25    21    22 ar
    26    22    23 ar
    27    23    24 ar
    28     1    25 1
    29     1    26 1
    30     2    27 1
    31     2    28 1
    32     4    29 1
    33     4    30 1
    34     5    31 1
    35     5    32 1
    36     8    33 1
    37    10    34 1
    38    13    35 1
    39    15    36 1
    40    14    37 1
    41    16    38 1
    42    20    39 1
    43    21    40 1
    44    24    41 1
    45    22    42 1
    46    23    43 1
@<TRIPOS>SUBSTRUCTURE
     1 KRM         1 TEMP              0 ****  ****    0 ROOT
