@<TRIPOS>MOLECULE
KRO
   33    34     1     0     0
SMALL
bcc


@<TRIPOS>ATOM
      1 OAB          0.0000     0.0000     0.0000 o          1 KRO      -0.854800
      2 CAN          1.2140     0.0000     0.0000 c          1 KRO       0.975800
      3 OAE          1.8870     0.0000     1.1670 o          1 KRO      -0.854800
      4 CAR          1.9550    -0.0070    -1.2830 cc         1 KRO      -0.130600
      5 NAL          3.3270     0.1180    -1.2950 ns         1 KRO       0.053900
      6 CAT          4.0180     0.1140    -2.4470 c          1 KRO       0.561500
      7 OAC          5.2280     0.2270    -2.4130 o          1 KRO      -0.758500
      8 NAM          3.4050    -0.0110    -3.6380 ns         1 KRO      -0.140500
      9 CAU          2.0630    -0.1370    -3.7070 c          1 KRO       0.619700
     10 OAD          1.5060    -0.2490    -4.7820 o          1 KRO      -0.699500
     11 CAS          1.2890    -0.1410    -2.4590 cd         1 KRO      -0.273400
     12 CAK         -0.2120    -0.2800    -2.4840 c3         1 KRO       0.022800
     13 CAJ         -0.8510     1.1040    -2.6170 c3         1 KRO       0.032900
     14 CAP         -2.3510     0.9650    -2.6410 ca         1 KRO      -0.065300
     15 CAI         -3.0100     0.7950    -3.8450 ca         1 KRO      -0.085000
     16 CAO         -4.3850     0.6680    -3.8690 ca         1 KRO      -0.133300
     17 CAA         -5.1020     0.4820    -5.1820 c3         1 KRO       0.072200
     18 CAQ         -5.1050     0.7090    -2.6870 ca         1 KRO       0.070900
     19 FAF         -6.4490     0.5840    -2.7100 f          1 KRO      -0.142900
     20 CAH         -4.4440     0.8780    -1.4820 ca         1 KRO      -0.138000
     21 CAG         -3.0680     1.0010    -1.4600 ca         1 KRO      -0.066000
     22 H2           3.9480    -0.0100    -4.4790 hn         1 KRO       0.187500
     23 H4          -0.5470    -0.7450    -1.5650 hc         1 KRO       0.054700
     24 H5          -0.5040    -0.8950    -3.3270 hc         1 KRO       0.054700
     25 H6          -0.5170     1.5690    -3.5370 hc         1 KRO       0.022700
     26 H7          -0.5590     1.7190    -1.7740 hc         1 KRO       0.022700
     27 H8          -2.4490     0.7870    -4.7720 ha         1 KRO       0.115000
     28 H9          -4.3940     0.5730    -5.9960 hc         1 KRO       0.003700
     29 H10         -5.8690     1.2390    -5.2840 hc         1 KRO       0.003700
     30 H11         -5.5580    -0.5000    -5.2080 hc         1 KRO       0.003700
     31 H12         -5.0060     0.9090    -0.5560 ha         1 KRO       0.110000
     32 H13         -2.5520     1.1340    -0.5170 ha         1 KRO       0.141000
     33 H14          3.8190     0.2130    -0.4280 hn         1 KRO       0.212500
@<TRIPOS>BOND
     1     1     2 1   
     2     2     3 1   
     3     2     4 1   
     4     4     5 1   
     5     4    11 2   
     6     5     6 1   
     7     5    33 1   
     8     6     7 2   
     9     6     8 1   
    10     8     9 1   
    11     8    22 1   
    12     9    10 2   
    13     9    11 1   
    14    11    12 1   
    15    12    13 1   
    16    12    23 1   
    17    12    24 1   
    18    13    14 1   
    19    13    25 1   
    20    13    26 1   
    21    14    15 ar  
    22    14    21 ar  
    23    15    16 ar  
    24    15    27 1   
    25    16    17 1   
    26    16    18 ar  
    27    17    28 1   
    28    17    29 1   
    29    17    30 1   
    30    18    19 1   
    31    18    20 ar  
    32    20    21 ar  
    33    20    31 1   
    34    21    32 1   
@<TRIPOS>SUBSTRUCTURE
     1 KRO         1 TEMP              0 ****  ****    0 ROOT
