@<TRIPOS>MOLECULE
molecule
   33    34     1     0     0
SMALL
bcc


@<TRIPOS>ATOM
      1 OAB          0.0000     0.0000     0.0000 o          1 KRO      -0.806800
      2 CAN          1.2140     0.0000     0.0000 c          1 KRO       0.880800
      3 OAE          1.8870     0.0000     1.1670 o          1 KRO      -0.806800
      4 CAR          1.9550    -0.0070    -1.2830 cc         1 KRO       0.043400
      5 NAL          3.3270     0.1180    -1.2950 ns         1 KRO      -0.428100
      6 CAT          4.0180     0.1140    -2.4470 c          1 KRO       0.799500
      7 OAC          5.2280     0.2270    -2.4130 o          1 KRO      -0.703500
      8 NAM          3.4050    -0.0110    -3.6380 ns         1 KRO      -0.568500
      9 CAU          2.0630    -0.1370    -3.7070 c          1 KRO       0.701700
     10 OAD          1.5060    -0.2490    -4.7820 o          1 KRO      -0.659500
     11 CAS          1.2890    -0.1410    -2.4590 cd         1 KRO      -0.282400
     12 CAK         -0.2120    -0.2800    -2.4840 c3         1 KRO      -0.005200
     13 CAJ         -0.8510     1.1040    -2.6170 c3         1 KRO      -0.025100
     14 CAP         -2.3510     0.9650    -2.6410 ca         1 KRO      -0.068300
     15 CAI         -3.0100     0.7950    -3.8450 ca         1 KRO      -0.109000
     16 CAO         -4.3850     0.6680    -3.8690 ca         1 KRO      -0.133300
     17 CAA         -5.1020     0.4820    -5.1820 c3         1 KRO      -0.038800
     18 CAQ         -5.1050     0.7090    -2.6870 ca         1 KRO       0.103900
     19 FAF         -6.4490     0.5840    -2.7100 f          1 KRO      -0.159900
     20 CAH         -4.4440     0.8780    -1.4820 ca         1 KRO      -0.171000
     21 CAG         -3.0680     1.0010    -1.4600 ca         1 KRO      -0.091000
     22 H2           3.9480    -0.0100    -4.4790 hn         1 KRO       0.341500
     23 H4          -0.5470    -0.7450    -1.5650 hc         1 KRO       0.075200
     24 H5          -0.5040    -0.8950    -3.3270 hc         1 KRO       0.075200
     25 H6          -0.5170     1.5690    -3.5370 hc         1 KRO       0.051700
     26 H7          -0.5590     1.7190    -1.7740 hc         1 KRO       0.051700
     27 H8          -2.4490     0.7870    -4.7720 ha         1 KRO       0.138000
     28 H9          -4.3940     0.5730    -5.9960 hc         1 KRO       0.038367
     29 H10         -5.8690     1.2390    -5.2840 hc         1 KRO       0.038367
     30 H11         -5.5580    -0.5000    -5.2080 hc         1 KRO       0.038367
     31 H12         -5.0060     0.9090    -0.5560 ha         1 KRO       0.134000
     32 H13         -2.5520     1.1340    -0.5170 ha         1 KRO       0.168000
     33 H14          3.8190     0.2130    -0.4280 hn         1 KRO       0.377500
@<TRIPOS>BOND
     1    17    16 1
     2    16    15 ar
     3    16    18 ar
     4    19    18 1
     5    15    14 ar
     6    18    20 ar
     7    14    13 1
     8    14    21 ar
     9    20    21 ar
    10    13    12 1
    11    12    11 1
    12    10     9 2
    13    11     9 1
    14    11     4 2
    15     9     8 1
    16     1     2 1
    17     2     4 1
    18     2     3 1
    19     4     5 1
    20     8     6 1
    21     5     6 1
    22     6     7 2
    23     8    22 1
    24    12    23 1
    25    12    24 1
    26    13    25 1
    27    13    26 1
    28    15    27 1
    29    17    28 1
    30    17    29 1
    31    17    30 1
    32    20    31 1
    33    21    32 1
    34     5    33 1
@<TRIPOS>SUBSTRUCTURE
     1 KRO         1 TEMP              0 ****  ****    0 ROOT
