@<TRIPOS>MOLECULE
KRP
   46    48     1     0     0
SMALL
bcc


@<TRIPOS>ATOM
      1 C1           0.0000     0.0000     0.0000 c3         1 KRP      -0.109000
      2 C2           1.5310     0.0000     0.0000 c3         1 KRP      -0.102000
      3 C4          -0.5100     0.0000     1.4420 c3         1 KRP      -0.174000
      4 N5          -1.9750     0.0000     1.4420 nx         1 KRP       0.232000
      5 C6          -2.6520    -1.1900     1.5980 c2         1 KRP      -0.167000
      6 C7          -1.9050    -2.4590     1.7650 c2         1 KRP       0.380000
      7 O8          -1.2930    -2.9310     0.8270 o          1 KRP      -0.286000
      8 C9          -1.9050    -3.1490     3.0690 ca         1 KRP      -0.171000
      9 C10         -2.4810    -2.5380     4.1840 ca         1 KRP      -0.042000
     10 C11         -2.4770    -3.1970     5.4110 ca         1 KRP       0.031000
     11 C12         -3.0650    -2.5780     6.5610 c1         1 KRP      -0.111000
     12 N13         -3.5280    -2.0690     7.4650 n1         1 KRP      -0.034000
     13 C14         -1.8960    -4.4650     5.5190 ca         1 KRP      -0.038000
     14 C15         -1.3280    -5.0640     4.4110 ca         1 KRP      -0.095000
     15 C16         -0.7040    -6.4300     4.5360 c3         1 KRP      -0.061000
     16 C17         -1.3340    -4.4200     3.1900 ca         1 KRP      -0.017000
     17 C18         -4.0130    -1.1890     1.5970 c2         1 KRP      -0.185000
     18 C19         -4.7860    -2.4710     1.7650 c3         1 KRP      -0.026000
     19 C20         -5.7470    -2.3360     2.9490 c3         1 KRP      -0.122500
     20 C21         -5.5820    -2.7580     0.4910 c3         1 KRP      -0.122500
     21 C22         -4.7080     0.0920     1.4290 c2         1 KRP       0.258000
     22 O23         -5.9240     0.1390     1.4240 o          1 KRP      -0.371000
     23 N24         -3.9780     1.2160     1.2820 ns         1 KRP       0.090000
     24 C25         -2.6340     1.1610     1.2950 c2         1 KRP       0.139000
     25 O26         -1.9990     2.1890     1.1610 o          1 KRP      -0.396000
     26 H1          -0.3610     0.5390    -0.8680 hc         1 KRP       0.069500
     27 H1A         -0.3610    -1.0210    -0.0330 hc         1 KRP       0.069500
     28 H2           1.8920    -0.5050    -0.8880 hc         1 KRP       0.043000
     29 H2A          1.8920    -0.5160     0.8810 hc         1 KRP       0.043000
     30 H2B          1.8920     1.0210     0.0060 hc         1 KRP       0.043000
     31 H4           0.3290    -0.0860     2.1220 hx         1 KRP       0.156000
     32 H4A         -1.1800    -0.8390     1.5880 DU         1 KRP       0.028000
     33 H10         -2.9840    -1.5850     4.0790 ha         1 KRP       0.127000
     34 H14         -1.8920    -4.9790     6.4720 ha         1 KRP       0.120000
     35 H16         -0.5970    -6.6840     5.5840 hc         1 KRP       0.053667
     36 H16A        -1.3380    -7.1620     4.0500 hc         1 KRP       0.053667
     37 H16B         0.2710    -6.4260     4.0640 hc         1 KRP       0.053667
     38 H17         -1.0060    -4.9530     2.3060 ha         1 KRP       0.129000
     39 H19         -4.1070    -3.3130     1.7040 hc         1 KRP       0.070000
     40 H20         -6.1610    -3.3080     3.1910 hc         1 KRP       0.053333
     41 H20A        -5.2110    -1.9490     3.8070 hc         1 KRP       0.053333
     42 H20B        -6.5490    -1.6570     2.6870 hc         1 KRP       0.053333
     43 H21         -6.4820    -2.1560     0.4850 hc         1 KRP       0.053333
     44 H21A        -4.9780    -2.5140    -0.3740 hc         1 KRP       0.053333
     45 H21B        -5.8500    -3.8070     0.4610 hc         1 KRP       0.053333
     46 HN24        -4.4410     2.1010     1.2250 hn         1 KRP       0.121000
@<TRIPOS>BOND
     1     1     2 1   
     2     1     3 1   
     3     1    26 1   
     4     1    27 1   
     5     2    28 1   
     6     2    29 1   
     7     2    30 1   
     8     3     4 1   
     9     3    31 1   
    10     3    32 1   
    11     4     5 1   
    12     4    24 1   
    13     4    32 1   
    14     5     6 1   
    15     5    17 1   
    16     6     7 1   
    17     6     8 1   
    18     8     9 1   
    19     8    16 1   
    20     9    10 1   
    21     9    33 1   
    22    10    11 1   
    23    10    13 1   
    24    11    12 1   
    25    13    14 1   
    26    13    34 1   
    27    14    15 1   
    28    14    16 1   
    29    15    35 1   
    30    15    36 1   
    31    15    37 1   
    32    16    38 1   
    33    17    18 1   
    34    17    21 1   
    35    18    19 1   
    36    18    20 1   
    37    18    39 1   
    38    19    40 1   
    39    19    41 1   
    40    19    42 1   
    41    20    43 1   
    42    20    44 1   
    43    20    45 1   
    44    21    22 1   
    45    21    23 1   
    46    23    24 1   
    47    23    46 1   
    48    24    25 1   
@<TRIPOS>SUBSTRUCTURE
     1 KRP         1 TEMP              0 ****  ****    0 ROOT
