@<TRIPOS>MOLECULE
KRS
   41    43     1     0     0
SMALL
bcc


@<TRIPOS>ATOM
      1 O4          0.5240    1.5400   -0.2740 o         1 KRS     -0.564500
      2 C8          1.4840    0.7910   -0.0900 c         1 KRS      0.746200
      3 C9          2.1070    0.4030    1.1780 ca        1 KRS     -0.234600
      4 C5          3.4000   -0.1550    1.1740 ca        1 KRS      0.029700
      5 C4          4.0450   -0.4860    2.3600 ca        1 KRS     -0.204000
      6 C3          3.3830   -0.2610    3.5820 ca        1 KRS      0.201100
      7 O2          4.0730   -0.6040    4.7160 oh        1 KRS     -0.487100
      8 C2          2.0930    0.2760    3.6220 ca        1 KRS     -0.329000
      9 C1          1.4590    0.6050    2.4130 ca        1 KRS      0.234100
     10 O1          0.1920    1.1190    2.3840 oh        1 KRS     -0.456100
     11 O3          2.0120    0.3360   -1.2790 os        1 KRS     -0.424900
     12 C7          3.0240   -0.6820   -1.2130 c3        1 KRS      0.148100
     13 C6          4.0620   -0.3770   -0.1400 c3        1 KRS     -0.081100
     14 C10         3.6620   -0.7320   -2.5960 c3        1 KRS     -0.074400
     15 C11         2.7340   -1.3950   -3.6080 c3        1 KRS      0.137100
     16 O5          2.7330   -2.7910   -3.2880 os        1 KRS     -0.426600
     17 C12         1.9310   -3.5910   -4.1560 c3        1 KRS      0.144100
     18 C16         0.4500   -3.3540   -3.9220 c3        1 KRS     -0.124100
     19 C13         2.3200   -3.4080   -5.6190 c3        1 KRS     -0.105400
     20 C14         2.3800   -1.9480   -6.0140 c3        1 KRS     -0.076400
     21 C15         3.2250   -1.1630   -5.0330 c3        1 KRS     -0.105400
     22 H1          5.0550   -0.9190    2.3610 ha        1 KRS      0.160000
     23 H2          3.5170   -0.4050    5.4840 ho        1 KRS      0.426000
     24 H3          1.5820    0.4410    4.5800 ha        1 KRS      0.143000
     25 H4         -0.1130    1.2310    3.2980 ho        1 KRS      0.423000
     26 H5          2.5100   -1.6600   -0.9890 h1        1 KRS      0.074700
     27 H6          4.7880   -1.2290   -0.0790 hc        1 KRS      0.075700
     28 H7          4.6390    0.5470   -0.4190 hc        1 KRS      0.075700
     29 H8          4.6190   -1.3100   -2.5280 hc        1 KRS      0.064200
     30 H9          3.8880    0.3080   -2.9450 hc        1 KRS      0.064200
     31 H10         1.6890   -0.9920   -3.4890 h1        1 KRS      0.062700
     32 H11         2.1960   -4.6390   -3.8260 h1        1 KRS      0.066700
     33 H12         0.1260   -2.3770   -4.3520 hc        1 KRS      0.044033
     34 H13        -0.1410   -4.1690   -4.4040 hc        1 KRS      0.044033
     35 H14         0.2350   -3.3470   -2.8270 hc        1 KRS      0.044033
     36 H15         3.3270   -3.8750   -5.7820 hc        1 KRS      0.048700
     37 H16         1.5810   -3.9490   -6.2640 hc        1 KRS      0.048700
     38 H17         1.3430   -1.5200   -6.0430 hc        1 KRS      0.044200
     39 H18         2.8100   -1.8540   -7.0440 hc        1 KRS      0.044200
     40 H19         4.2960   -1.4840   -5.1140 hc        1 KRS      0.050200
     41 H20         3.1710   -0.0700   -5.2690 hc        1 KRS      0.050200
@<TRIPOS>BOND
     1    1    2 2   
     2    2    3 1   
     3    2   11 1   
     4    3    4 ar  
     5    3    9 ar  
     6    4    5 ar  
     7    4   13 1   
     8    5    6 ar  
     9    5   22 1   
    10    6    7 1   
    11    6    8 ar  
    12    7   23 1   
    13    8    9 ar  
    14    8   24 1   
    15    9   10 1   
    16   10   25 1   
    17   11   12 1   
    18   12   13 1   
    19   12   14 1   
    20   12   26 1   
    21   13   27 1   
    22   13   28 1   
    23   14   15 1   
    24   14   29 1   
    25   14   30 1   
    26   15   16 1   
    27   15   21 1   
    28   15   31 1   
    29   16   17 1   
    30   17   18 1   
    31   17   19 1   
    32   17   32 1   
    33   18   33 1   
    34   18   34 1   
    35   18   35 1   
    36   19   20 1   
    37   19   36 1   
    38   19   37 1   
    39   20   21 1   
    40   20   38 1   
    41   20   39 1   
    42   21   40 1   
    43   21   41 1   
@<TRIPOS>SUBSTRUCTURE
     1 KRS         1 TEMP              0 ****  ****    0 ROOT
