@<TRIPOS>MOLECULE
molecule
   41    43     1     0     0
SMALL
bcc


@<TRIPOS>ATOM
      1 O4           0.0000     0.0000     0.0000 o          1 KRS      -0.542500
      2 C8           1.2160     0.0000     0.0000 c          1 KRS       0.749200
      3 C9           1.9850     0.0000     1.2590 ca         1 KRS      -0.214600
      4 C5           3.3670    -0.2070     1.2210 ca         1 KRS      -0.010300
      5 C4           4.0870    -0.2130     2.3940 ca         1 KRS      -0.187000
      6 C3           3.4440    -0.0120     3.6120 ca         1 KRS       0.161100
      7 O2           4.1630    -0.0210     4.7630 oh         1 KRS      -0.519100
      8 C2           2.0730     0.1980     3.6570 ca         1 KRS      -0.230000
      9 C1           1.3370     0.2060     2.4840 ca         1 KRS       0.197100
     10 O1          -0.0040     0.4120     2.5220 oh         1 KRS      -0.482100
     11 O3           1.9240    -0.0070    -1.1590 os         1 KRS      -0.429900
     12 C7           3.0820    -0.8910    -1.1550 c3         1 KRS       0.160100
     13 C6           4.0740    -0.4170    -0.0930 c3         1 KRS      -0.072100
     14 C10          3.7540    -0.8590    -2.5290 c3         1 KRS      -0.066400
     15 C11          2.8030    -1.4440    -3.5750 c3         1 KRS       0.140100
     16 O5           2.5800    -2.8280    -3.2960 os         1 KRS      -0.425600
     17 C12          1.6810    -3.4690    -4.2020 c3         1 KRS       0.147100
     18 C16          0.3280    -2.7560    -4.1690 c3         1 KRS      -0.131100
     19 C13          2.2560    -3.4060    -5.6200 c3         1 KRS      -0.112400
     20 C14          2.4930    -1.9410    -6.0010 c3         1 KRS      -0.081400
     21 C15          3.4230    -1.3000    -4.9670 c3         1 KRS      -0.111400
     22 H1           5.1570    -0.3770     2.3700 ha         1 KRS       0.147000
     23 H2           4.4770     0.8500     4.9440 ho         1 KRS       0.426000
     24 H3           1.5790     0.3540     4.6090 ha         1 KRS       0.153000
     25 H4          -0.1830     1.2380     2.9380 ho         1 KRS       0.425000
     26 H5           2.7640    -1.9010    -0.9250 h1         1 KRS       0.077700
     27 H6           4.8470    -1.1640     0.0320 hc         1 KRS       0.069700
     28 H7           4.5190     0.5180    -0.4120 hc         1 KRS       0.069700
     29 H8           3.9930     0.1650    -2.7910 hc         1 KRS       0.064200
     30 H9           4.6640    -1.4460    -2.5000 hc         1 KRS       0.064200
     31 H10          1.8570    -0.9150    -3.5460 h1         1 KRS       0.062700
     32 H11          1.5550    -4.5050    -3.9110 h1         1 KRS       0.076700
     33 H12          0.4270    -1.7720    -4.6120 hc         1 KRS       0.046367
     34 H13         -0.0040    -2.6580    -3.1420 hc         1 KRS       0.046367
     35 H14         -0.3980    -3.3320    -4.7290 hc         1 KRS       0.046367
     36 H15          3.1960    -3.9440    -5.6520 hc         1 KRS       0.050200
     37 H16          1.5540    -3.8510    -6.3140 hc         1 KRS       0.050200
     38 H17          2.9530    -1.8920    -6.9800 hc         1 KRS       0.045700
     39 H18          1.5470    -1.4130    -6.0120 hc         1 KRS       0.045700
     40 H19          4.3840    -1.8000    -4.9880 hc         1 KRS       0.048700
     41 H20          3.5500    -0.2490    -5.1990 hc         1 KRS       0.048700
@<TRIPOS>BOND
     1    10     9 1
     2     1     2 2
     3     9     8 ar
     4     9     3 ar
     5     2     3 1
     6     2    11 1
     7     8     6 ar
     8     3     4 ar
     9    11    12 1
    10     6     7 1
    11     6     5 ar
    12     4     5 ar
    13     4    13 1
    14    13    12 1
    15    12    14 1
    16    14    15 1
    17    15    21 1
    18    15    16 1
    19    21    20 1
    20    16    17 1
    21    20    19 1
    22    17    19 1
    23    17    18 1
    24     5    22 1
    25     7    23 1
    26     8    24 1
    27    10    25 1
    28    12    26 1
    29    13    27 1
    30    13    28 1
    31    14    29 1
    32    14    30 1
    33    15    31 1
    34    17    32 1
    35    18    33 1
    36    18    34 1
    37    18    35 1
    38    19    36 1
    39    19    37 1
    40    20    38 1
    41    20    39 1
    42    21    40 1
    43    21    41 1
@<TRIPOS>SUBSTRUCTURE
     1 KRS         1 TEMP              0 ****  ****    0 ROOT
