@<TRIPOS>MOLECULE
KRV
   43    44     1     0     0
SMALL
bcc


@<TRIPOS>ATOM
      1 C1           0.0000     0.0000     0.0000 c3         1 KRV      -0.191000
      2 C2           1.5300     0.0000     0.0000 c3         1 KRV      -0.059100
      3 N8          -0.4880     0.0000     1.3810 n          1 KRV       0.549000
      4 C9          -0.5400    -1.1560     2.0620 c          1 KRV       0.501500
      5 N10         -0.9800    -1.2110     3.3320 ns         1 KRV      -0.137500
      6 C11         -1.3880    -0.0900     3.9630 c          1 KRV       0.610700
      7 C12         -1.3420     1.1860     3.2390 cc         1 KRV      -0.162400
      8 C13         -0.8820     1.1870     1.9600 cd         1 KRV      -0.336600
      9 C14         -0.8120     2.4530     1.1920 c          1 KRV       0.661900
     10 O15          0.2680     2.9220     0.8910 o          1 KRV      -0.529100
     11 C16         -2.0540     3.1440     0.7940 ca         1 KRV      -0.189600
     12 C17         -3.2920     2.5380     1.0080 ca         1 KRV      -0.039000
     13 C18         -4.4580     3.1980     0.6280 ca         1 KRV       0.028000
     14 C19         -5.7340     2.5830     0.8440 cg         1 KRV       0.218800
     15 N20         -6.7460     2.0890     0.9970 n1         1 KRV      -0.359800
     16 C21         -4.3820     4.4620     0.0360 ca         1 KRV      -0.037000
     17 C22         -3.1530     5.0560    -0.1730 ca         1 KRV      -0.101300
     18 C23         -1.9930     4.4110     0.2050 ca         1 KRV      -0.016000
     19 C24         -3.0790     6.4190    -0.8120 c3         1 KRV       0.064200
     20 C25         -1.7850     2.4650     3.9020 c3         1 KRV       0.011500
     21 C26         -3.2350     2.3180     4.3720 c3         1 KRV      -0.001600
     22 C27         -0.8860     2.7550     5.1050 c3         1 KRV      -0.001600
     23 O28         -1.7870    -0.1370     5.1110 o          1 KRV      -0.630500
     24 O29         -0.1790    -2.1810     1.5160 o          1 KRV      -0.628500
     25 H1          -0.3610     0.9270    -0.4280 h1         1 KRV      -0.028800
     26 H1A         -0.3610    -0.0930     1.0170 h1         1 KRV      -0.028800
     27 H2           1.8910     0.6000     0.8270 hc         1 KRV       0.027033
     28 H2A          1.8910    -1.0160     0.1060 hc         1 KRV       0.027033
     29 H2B          1.8910     0.4160    -0.9330 hc         1 KRV       0.027033
     30 HN10        -1.0090    -2.0860     3.8170 hn         1 KRV       0.213500
     31 H17         -3.3420     1.5520     1.4560 ha         1 KRV       0.125000
     32 H21         -5.2880     4.9770    -0.2600 ha         1 KRV       0.120000
     33 H23         -1.0340     4.8870     0.0410 ha         1 KRV       0.129000
     34 H24         -3.9800     6.5980    -1.3860 hc         1 KRV       0.014367
     35 H24A        -2.2180     6.4650    -1.4670 hc         1 KRV       0.014367
     36 H24B        -2.9870     7.1750    -0.0410 hc         1 KRV       0.014367
     37 H25         -1.7840     3.2680     3.1750 hc         1 KRV       0.032700
     38 H26         -3.7210     3.2860     4.3490 hc         1 KRV       0.014700
     39 H26A        -3.2490     1.9310     5.3840 hc         1 KRV       0.014700
     40 H26B        -3.7600     1.6350     3.7160 hc         1 KRV       0.014700
     41 H27         -1.0970     2.0440     5.8940 hc         1 KRV       0.014700
     42 H27A         0.1530     2.6680     4.8090 hc         1 KRV       0.014700
     43 H27B        -1.0760     3.7590     5.4640 hc         1 KRV       0.014700
@<TRIPOS>BOND
     1     1     2 1   
     2     1     3 1   
     3     1    25 1   
     4     1    26 1   
     5     2    27 1   
     6     2    28 1   
     7     2    29 1   
     8     3     4 1   
     9     3     8 1   
    10     4     5 1   
    11     4    24 2   
    12     5     6 1   
    13     5    30 1   
    14     6     7 1   
    15     6    23 2   
    16     7     8 2   
    17     7    20 1   
    18     8     9 1   
    19     9    10 2   
    20     9    11 1   
    21    11    12 ar  
    22    11    18 ar  
    23    12    13 ar  
    24    12    31 1   
    25    13    14 1   
    26    13    16 ar  
    27    14    15 3   
    28    16    17 ar  
    29    16    32 1   
    30    17    18 ar  
    31    17    19 1   
    32    18    33 1   
    33    19    34 1   
    34    19    35 1   
    35    19    36 1   
    36    20    21 1   
    37    20    22 1   
    38    20    37 1   
    39    21    38 1   
    40    21    39 1   
    41    21    40 1   
    42    22    41 1   
    43    22    42 1   
    44    22    43 1   
@<TRIPOS>SUBSTRUCTURE
     1 KRV         1 TEMP              0 ****  ****    0 ROOT
