@<TRIPOS>MOLECULE
KRW
   44    48     1     0     0
SMALL
bcc


@<TRIPOS>ATOM
      1 O28        -0.2080    0.2720    0.4570 oh        1 KRW     -0.603800
      2 C27         1.1780    0.0890    0.2150 c3        1 KRW      0.115400
      3 C26         1.8120   -0.0290    1.6100 c3        1 KRW      0.048300
      4 N12         3.2620   -0.0690    1.5810 na        1 KRW      0.093400
      5 C11         4.0870    0.9090    2.1360 cc        1 KRW     -0.100300
      6 N13         3.9710   -1.0390    0.9690 nc        1 KRW     -0.513800
      7 C14         5.2780   -0.7280    1.1230 cd        1 KRW      0.351200
      8 C10         5.4140    0.5130    1.8670 cd        1 KRW     -0.346800
      9 C1          6.6380    1.1760    2.2380 ca        1 KRW      0.447500
     10 N4          7.8200    0.6560    1.8210 nb        1 KRW     -0.632000
     11 C5          8.8990    1.3720    2.2290 ca        1 KRW      0.308500
     12 N9         10.2900    1.1780    2.0680 na        1 KRW     -0.038800
     13 N8         10.9370    2.2160    2.6720 nc        1 KRW     -0.129400
     14 N7         10.1650    3.0190    3.2600 nd        1 KRW     -0.249000
     15 C6          8.8110    2.5930    3.0490 ca        1 KRW      0.347000
     16 N3          7.6140    3.0860    3.4590 nb        1 KRW     -0.536000
     17 C2          6.5620    2.3760    3.0450 ca        1 KRW      0.258900
     18 C          10.9050    0.2410    1.1450 c3        1 KRW      0.110600
     19 C16        11.1880    0.8060   -0.2160 ca        1 KRW     -0.130300
     20 C19        12.2270    1.6900   -0.4080 ca        1 KRW     -0.076000
     21 C20        12.5100    2.1950   -1.7000 ca        1 KRW     -0.155300
     22 C25        13.5760    3.1130   -1.9340 ca        1 KRW     -0.073000
     23 C24        13.8040    3.5670   -3.2080 ca        1 KRW     -0.250300
     24 C23        12.9570    3.0960   -4.2620 ca        1 KRW      0.418200
     25 N22        11.9590    2.2490   -4.0950 nb        1 KRW     -0.659000
     26 C21        11.7150    1.7830   -2.8150 ca        1 KRW      0.403600
     27 C18        10.6400    0.8670   -2.5800 ca        1 KRW     -0.167300
     28 C17        10.3890    0.4000   -1.3150 ca        1 KRW     -0.105000
     29 H28        -0.6470    0.2060   -0.3990 ho        1 KRW      0.413000
     30 H271        1.5840    0.9740   -0.3440 h1        1 KRW      0.044200
     31 H272        1.3570   -0.8430   -0.3830 h1        1 KRW      0.044200
     32 H261        1.5000    0.8540    2.2340 h1        1 KRW      0.080200
     33 H262        1.4290   -0.9700    2.1010 h1        1 KRW      0.080200
     34 H11         3.6900    1.7740    2.6670 h4        1 KRW      0.183000
     35 H14         6.0830   -1.3520    0.7300 h4        1 KRW      0.060100
     36 H2          5.5750    2.7560    3.3620 h4        1 KRW      0.034100
     37 HC1        10.2050   -0.6400    1.0620 h1        1 KRW      0.084200
     38 HC2        11.8740   -0.1080    1.6090 h1        1 KRW      0.084200
     39 H19        12.8490    2.0210    0.4400 ha        1 KRW      0.148000
     40 H17         9.5550   -0.2980   -1.1390 ha        1 KRW      0.143000
     41 H25        14.1930    3.4410   -1.0850 ha        1 KRW      0.143000
     42 H24        14.6110    4.2750   -3.4380 ha        1 KRW      0.147000
     43 H23        13.1280    3.4510   -5.2960 h4        1 KRW      0.024100
     44 H18        10.0170    0.5470   -3.4310 ha        1 KRW      0.154000
@<TRIPOS>BOND
     1    1    2 1   
     2    1   29 1   
     3    2    3 1   
     4    2   30 1   
     5    2   31 1   
     6    3    4 1   
     7    3   32 1   
     8    3   33 1   
     9    4    5 1   
    10    4    6 1   
    11    5    8 2   
    12    5   34 1   
    13    6    7 2   
    14    7    8 1   
    15    7   35 1   
    16    8    9 1   
    17    9   10 ar  
    18    9   17 ar  
    19   10   11 ar  
    20   11   12 1   
    21   11   15 ar  
    22   12   13 1   
    23   12   18 1   
    24   13   14 2   
    25   14   15 1   
    26   15   16 ar  
    27   16   17 ar  
    28   17   36 1   
    29   18   19 1   
    30   18   37 1   
    31   18   38 1   
    32   19   20 ar  
    33   19   28 ar  
    34   20   21 ar  
    35   20   39 1   
    36   21   22 ar  
    37   21   26 ar  
    38   22   23 ar  
    39   22   41 1   
    40   23   24 ar  
    41   23   42 1   
    42   24   25 ar  
    43   24   43 1   
    44   25   26 ar  
    45   26   27 ar  
    46   27   28 ar  
    47   27   44 1   
    48   28   40 1   
@<TRIPOS>SUBSTRUCTURE
     1 KRW         1 TEMP              0 ****  ****    0 ROOT
