@<TRIPOS>MOLECULE
molecule
   44    48     1     0     0
SMALL
bcc


@<TRIPOS>ATOM
      1 O28          0.0000     0.0000     0.0000 oh         1 KRW      -0.612800
      2 C27          1.4290     0.0000     0.0000 c3         1 KRW       0.123400
      3 C26          1.9400     0.0000     1.4430 c3         1 KRW       0.073300
      4 N12          3.4040    -0.0010     1.4430 na         1 KRW       0.075400
      5 C11          4.1940     0.8940     2.0690 cc         1 KRW      -0.078300
      6 N13          4.2250    -0.9330     0.7980 nc         1 KRW      -0.514800
      7 C14          5.4720    -0.6140     1.0190 cd         1 KRW       0.379200
      8 C10          5.4910     0.5420     1.8240 cd         1 KRW      -0.384800
      9 C1           6.6990     1.2470     2.3180 ca         1 KRW       0.460500
     10 N4           7.9020     0.8550     1.9220 nb         1 KRW      -0.687000
     11 C5           8.9790     1.4870     2.3650 ca         1 KRW       0.329500
     12 N9          10.3260     1.3320     2.1530 na         1 KRW      -0.042800
     13 N8          10.9660     2.3220     2.9140 nc         1 KRW      -0.116400
     14 N7          10.0860     3.0200     3.5370 nd         1 KRW      -0.263000
     15 C6           8.8460     2.5730     3.2530 ca         1 KRW       0.376000
     16 N3           7.6290     2.9590     3.6440 nb         1 KRW      -0.577000
     17 C2           6.5650     2.3290     3.1960 ca         1 KRW       0.283900
     18 C           10.9700     0.3300     1.3000 c3         1 KRW       0.127600
     19 C16         11.1200     0.8790    -0.0950 ca         1 KRW      -0.130300
     20 C19         12.2490     1.5610    -0.4310 ca         1 KRW      -0.074000
     21 C20         12.3890     2.0740    -1.7300 ca         1 KRW      -0.163300
     22 C25         13.5420     2.7850    -2.1170 ca         1 KRW      -0.071000
     23 C24         13.6100     3.2530    -3.3980 ca         1 KRW      -0.259300
     24 C23         12.5550     3.0220    -4.2800 ca         1 KRW       0.439200
     25 N22         11.4840     2.3610    -3.9160 nb         1 KRW      -0.682000
     26 C21         11.3550     1.8740    -2.6770 ca         1 KRW       0.427600
     27 C18         10.2040     1.1650    -2.2930 ca         1 KRW      -0.164300
     28 C17         10.1030     0.6770    -1.0260 ca         1 KRW      -0.103000
     29 H28         -0.3140     0.0380    -0.8880 ho         1 KRW       0.415000
     30 H271         1.7900     0.8850    -0.5110 h1         1 KRW       0.041200
     31 H272         1.7900    -0.8850    -0.5110 h1         1 KRW       0.041200
     32 H261         1.5790     0.8850     1.9540 h1         1 KRW       0.075700
     33 H262         1.5780    -0.8840     1.9540 h1         1 KRW       0.075700
     34 H11          3.8600     1.7390     2.6580 h4         1 KRW       0.176000
     35 H14          6.3400    -1.1470     0.6490 h4         1 KRW       0.065100
     36 H2           5.5790     2.6500     3.5100 h4         1 KRW       0.035100
     37 HC1         11.9470     0.0890     1.7000 h1         1 KRW       0.079200
     38 HC2         10.3600    -0.5650     1.2710 h1         1 KRW       0.079200
     39 H19         13.0780     1.6110     0.2640 ha         1 KRW       0.140000
     40 H17          9.2190     0.1200    -0.7390 ha         1 KRW       0.144000
     41 H25         14.3510     2.9550    -1.4180 ha         1 KRW       0.142000
     42 H24         14.4820     3.8040    -3.7290 ha         1 KRW       0.140000
     43 H23         12.6230     3.4000    -5.2930 h4         1 KRW       0.024100
     44 H18          9.4040     0.9990    -3.0050 ha         1 KRW       0.153000
@<TRIPOS>BOND
     1     1     2 1
     2     2     3 1
     3     3     4 1
     4     4     5 1
     5     4     6 1
     6     5     8 2
     7     6     7 2
     8     7     8 1
     9     8     9 1
    10     9    10 ar
    11     9    17 ar
    12    10    11 ar
    13    11    12 1
    14    11    15 ar
    15    12    13 1
    16    12    18 1
    17    13    14 2
    18    14    15 1
    19    15    16 ar
    20    16    17 ar
    21    18    19 1
    22    19    20 ar
    23    19    28 ar
    24    20    21 ar
    25    21    22 ar
    26    21    26 ar
    27    22    23 ar
    28    23    24 ar
    29    24    25 ar
    30    25    26 ar
    31    26    27 ar
    32    27    28 ar
    33     1    29 1
    34     2    30 1
    35     2    31 1
    36     3    32 1
    37     3    33 1
    38     5    34 1
    39     7    35 1
    40    17    36 1
    41    18    37 1
    42    18    38 1
    43    20    39 1
    44    28    40 1
    45    22    41 1
    46    23    42 1
    47    24    43 1
    48    27    44 1
@<TRIPOS>SUBSTRUCTURE
     1 KRW         1 TEMP              0 ****  ****    0 ROOT
