@<TRIPOS>MOLECULE
KRX
   50    52     1     0     0
SMALL
bcc


@<TRIPOS>ATOM
      1 C1           0.0000     0.0000     0.0000 c3         1 KRX       0.243700
      2 O2           1.4290     0.0000     0.0000 os         1 KRX      -0.305900
      3 C3           2.0460     0.0000     1.2110 ca         1 KRX       0.144100
      4 C4           1.2900    -0.0000     2.3750 ca         1 KRX      -0.200000
      5 C5           1.9140     0.0000     3.6090 ca         1 KRX      -0.061000
      6 C6           3.2910    -0.0010     3.6910 ca         1 KRX      -0.134000
      7 C7           4.0590    -0.0010     2.5270 cp         1 KRX      -0.126500
      8 C8           3.4290    -0.0060     1.2840 ca         1 KRX      -0.103000
      9 C9           5.5380    -0.0010     2.6120 cp         1 KRX       0.463800
     10 C10          6.1560    -0.1070     3.8570 ca         1 KRX      -0.230300
     11 C11          7.5350    -0.1060     3.9280 ca         1 KRX       0.002000
     12 C12          8.2630     0.0020     2.7350 ca         1 KRX      -0.286900
     13 C13          7.5730     0.1040     1.5250 ca         1 KRX       0.425200
     14 N14          6.2580     0.0940     1.5000 nb         1 KRX      -0.578000
     15 C15          9.7400     0.0070     2.7580 c          1 KRX       0.605700
     16 O16         10.3330    -0.0820     3.8150 o          1 KRX      -0.652100
     17 N17         10.4310     0.1110     1.6050 ns         1 KRX      -0.189900
     18 C18         11.8960     0.1160     1.6270 c3         1 KRX       0.014700
     19 C19         12.4240     0.8400     0.3840 c3         1 KRX      -0.037900
     20 C20         13.9530     0.7890     0.3820 c3         1 KRX       0.147800
     21 N21         14.3980    -0.6100     0.3810 n3         1 KRX      -0.527600
     22 C22         13.9430    -1.3130     1.5880 c3         1 KRX       0.147800
     23 C23         12.4130    -1.3250     1.6270 c3         1 KRX      -0.037900
     24 C24         15.8570    -0.6990     0.2400 c3         1 KRX       0.090800
     25 C25         16.2440    -0.4450    -1.2180 c3         1 KRX       0.572900
     26 F26         15.9380     0.8780    -1.5580 f          1 KRX      -0.205633
     27 F27         17.6160    -0.6630    -1.3820 f          1 KRX      -0.205633
     28 F28         15.5320    -1.3170    -2.0490 f          1 KRX      -0.205633
     29 H11C        -0.3610    -0.0000    -1.0210 h1         1 KRX      -0.002633
     30 H12C        -0.3610     0.8850     0.5110 h1         1 KRX      -0.002633
     31 H13C        -0.3610    -0.8840     0.5110 h1         1 KRX      -0.002633
     32 H4           0.2080     0.0010     2.3170 ha         1 KRX       0.120000
     33 H8           4.0210    -0.0060     0.3760 ha         1 KRX       0.137000
     34 H5           1.3190     0.0000     4.5150 ha         1 KRX       0.102000
     35 H6           3.7760     0.0010     4.6600 ha         1 KRX       0.112000
     36 H10          5.5620    -0.1880     4.7590 ha         1 KRX       0.127000
     37 H11          8.0420    -0.1870     4.8820 ha         1 KRX       0.132000
     38 H13          8.1270     0.1850     0.5970 h4         1 KRX      -0.022900
     39 H17          9.9440     0.2060     0.7360 hn         1 KRX       0.181500
     40 H18         12.2470     0.6250     2.5160 h1         1 KRX       0.057700
     41 H191        12.0450     0.3510    -0.5050 hc         1 KRX       0.030450
     42 H192        12.0970     1.8730     0.4030 hc         1 KRX       0.030450
     43 H231        12.0340    -1.8440     0.7550 hc         1 KRX       0.030450
     44 H232        12.0800    -1.8280     2.5270 hc         1 KRX       0.030450
     45 H201        14.3280     1.2860    -0.5040 h1         1 KRX       0.020200
     46 H202        14.3300     1.2850     1.2680 h1         1 KRX       0.020200
     47 H221        14.3110    -2.3320     1.5700 h1         1 KRX       0.020200
     48 H222        14.3220    -0.8020     2.4650 h1         1 KRX       0.020200
     49 H241        16.3270     0.0440     0.8730 h1         1 KRX       0.045200
     50 H242        16.1890    -1.6870     0.5350 h1         1 KRX       0.045200
@<TRIPOS>BOND
     1     1     2 1   
     2     1    29 1   
     3     1    30 1   
     4     1    31 1   
     5     2     3 1   
     6     3     4 ar  
     7     3     8 ar  
     8     4     5 ar  
     9     4    32 1   
    10     5     6 ar  
    11     5    34 1   
    12     6     7 ar  
    13     6    35 1   
    14     7     8 ar  
    15     7     9 1   
    16     8    33 1   
    17     9    10 ar  
    18     9    14 ar  
    19    10    11 ar  
    20    10    36 1   
    21    11    12 ar  
    22    11    37 1   
    23    12    13 ar  
    24    12    15 1   
    25    13    14 ar  
    26    13    38 1   
    27    15    16 2   
    28    15    17 1   
    29    17    18 1   
    30    17    39 1   
    31    18    19 1   
    32    18    23 1   
    33    18    40 1   
    34    19    20 1   
    35    19    41 1   
    36    19    42 1   
    37    20    21 1   
    38    20    45 1   
    39    20    46 1   
    40    21    22 1   
    41    21    24 1   
    42    22    23 1   
    43    22    47 1   
    44    22    48 1   
    45    23    43 1   
    46    23    44 1   
    47    24    25 1   
    48    24    49 1   
    49    24    50 1   
    50    25    26 1   
    51    25    27 1   
    52    25    28 1   
@<TRIPOS>SUBSTRUCTURE
     1 KRX         1 TEMP              0 ****  ****    0 ROOT
