@<TRIPOS>MOLECULE
molecule
   50    52     1     0     0
SMALL
bcc


@<TRIPOS>ATOM
      1 C1           0.0000     0.0000     0.0000 c3         1 KRX       0.128700
      2 O2           1.4290     0.0000     0.0000 os         1 KRX      -0.326900
      3 C3           2.0460     0.0000     1.2110 ca         1 KRX       0.133100
      4 C4           1.2900    -0.0000     2.3750 ca         1 KRX      -0.208000
      5 C5           1.9140     0.0000     3.6090 ca         1 KRX      -0.096000
      6 C6           3.2910    -0.0010     3.6910 ca         1 KRX      -0.149000
      7 C7           4.0590    -0.0010     2.5270 cp         1 KRX      -0.123500
      8 C8           3.4290    -0.0060     1.2840 ca         1 KRX      -0.114000
      9 C9           5.5380    -0.0010     2.6120 cp         1 KRX       0.507800
     10 C10          6.1560    -0.1070     3.8570 ca         1 KRX      -0.253300
     11 C11          7.5350    -0.1060     3.9280 ca         1 KRX      -0.031000
     12 C12          8.2630     0.0020     2.7350 ca         1 KRX      -0.279900
     13 C13          7.5730     0.1040     1.5250 ca         1 KRX       0.449200
     14 N14          6.2580     0.0940     1.5000 nb         1 KRX      -0.694000
     15 C15          9.7400     0.0070     2.7580 c          1 KRX       0.678700
     16 O16         10.3330    -0.0820     3.8150 o          1 KRX      -0.611100
     17 N17         10.4310     0.1110     1.6050 ns         1 KRX      -0.578900
     18 C18         11.8960     0.1160     1.6270 c3         1 KRX       0.114700
     19 C19         12.4240     0.8400     0.3840 c3         1 KRX      -0.091400
     20 C20         13.9530     0.7890     0.3820 c3         1 KRX       0.159300
     21 N21         14.3980    -0.6100     0.3810 n3         1 KRX      -0.725600
     22 C22         13.9430    -1.3130     1.5880 c3         1 KRX       0.159300
     23 C23         12.4130    -1.3250     1.6270 c3         1 KRX      -0.091400
     24 C24         15.8570    -0.6990     0.2400 c3         1 KRX       0.112800
     25 C25         16.2440    -0.4450    -1.2180 c3         1 KRX       0.617900
     26 F26         15.9380     0.8780    -1.5580 f          1 KRX      -0.224633
     27 F27         17.6160    -0.6630    -1.3820 f          1 KRX      -0.224633
     28 F28         15.5320    -1.3170    -2.0490 f          1 KRX      -0.224633
     29 H11C        -0.3610    -0.0000    -1.0210 h1         1 KRX       0.041700
     30 H12C        -0.3610     0.8850     0.5110 h1         1 KRX       0.041700
     31 H13C        -0.3610    -0.8840     0.5110 h1         1 KRX       0.041700
     32 H4           0.2080     0.0010     2.3170 ha         1 KRX       0.136000
     33 H8           4.0210    -0.0060     0.3760 ha         1 KRX       0.168000
     34 H5           1.3190     0.0000     4.5150 ha         1 KRX       0.133000
     35 H6           3.7760     0.0010     4.6600 ha         1 KRX       0.133000
     36 H10          5.5620    -0.1880     4.7590 ha         1 KRX       0.149000
     37 H11          8.0420    -0.1870     4.8820 ha         1 KRX       0.165000
     38 H13          8.1270     0.1850     0.5970 h4         1 KRX       0.019100
     39 H17          9.9440     0.2060     0.7360 hn         1 KRX       0.316500
     40 H18         12.2470     0.6250     2.5160 h1         1 KRX       0.078700
     41 H191        12.0450     0.3510    -0.5050 hc         1 KRX       0.060200
     42 H192        12.0970     1.8730     0.4030 hc         1 KRX       0.060200
     43 H231        12.0340    -1.8440     0.7550 hc         1 KRX       0.060200
     44 H232        12.0800    -1.8280     2.5270 hc         1 KRX       0.060200
     45 H201        14.3280     1.2860    -0.5040 h1         1 KRX       0.046200
     46 H202        14.3300     1.2850     1.2680 h1         1 KRX       0.046200
     47 H221        14.3110    -2.3320     1.5700 h1         1 KRX       0.046200
     48 H222        14.3220    -0.8020     2.4650 h1         1 KRX       0.046200
     49 H241        16.3270     0.0440     0.8730 h1         1 KRX       0.069700
     50 H242        16.1890    -1.6870     0.5350 h1         1 KRX       0.069700
@<TRIPOS>BOND
     1     1     2 1
     2     2     3 1
     3     3     4 ar
     4     3     8 ar
     5     4     5 ar
     6     5     6 ar
     7     6     7 ar
     8     7     8 ar
     9     7     9 1
    10     9    10 ar
    11     9    14 ar
    12    10    11 ar
    13    11    12 ar
    14    12    13 ar
    15    12    15 1
    16    13    14 ar
    17    15    16 2
    18    15    17 1
    19    17    18 1
    20    18    19 1
    21    18    23 1
    22    19    20 1
    23    20    21 1
    24    21    22 1
    25    21    24 1
    26    22    23 1
    27    24    25 1
    28    25    26 1
    29    25    27 1
    30    25    28 1
    31     1    29 1
    32     1    30 1
    33     1    31 1
    34     4    32 1
    35     8    33 1
    36     5    34 1
    37     6    35 1
    38    10    36 1
    39    11    37 1
    40    13    38 1
    41    17    39 1
    42    18    40 1
    43    19    41 1
    44    19    42 1
    45    23    43 1
    46    23    44 1
    47    20    45 1
    48    20    46 1
    49    22    47 1
    50    22    48 1
    51    24    49 1
    52    24    50 1
@<TRIPOS>SUBSTRUCTURE
     1 KRX         1 TEMP              0 ****  ****    0 ROOT
