@<TRIPOS>MOLECULE
KS1
   41    45     1     0     0
SMALL
bcc


@<TRIPOS>ATOM
      1 CAI          0.0000     0.0000     0.0000 c3         1 KS1      -0.040900
      2 CAG          1.5390     0.0000     0.0000 c3         1 KS1      -0.020400
      3 CAH          1.9800     0.0000     1.4780 c3         1 KS1      -0.020400
      4 CAJ          0.7690    -0.6010     2.2350 c3         1 KS1      -0.040900
      5 CAW         -0.4400     0.0000     1.4790 c3         1 KS1      -0.036000
      6 NAX         -1.6270    -0.8390     1.6610 na         1 KS1       0.389200
      7 NAN         -1.7010    -2.2070     1.3760 nc         1 KS1      -0.625100
      8 C4          -2.8290    -0.4100     2.1380 ca         1 KS1       0.347800
      9 N3          -3.3030     0.7630     2.5570 nb         1 KS1      -0.696000
     10 C2          -4.5450     0.8760     2.9750 ca         1 KS1       0.708900
     11 N1          -5.3820    -0.1450     3.0050 nb         1 KS1      -0.746000
     12 C6          -5.0040    -1.3570     2.6070 ca         1 KS1       0.614200
     13 NAA         -5.8850    -2.4190     2.6400 nv         1 KS1      -0.544500
     14 C5          -3.6860    -1.5270     2.1520 ca         1 KS1      -0.551500
     15 CAR         -2.9030    -2.6560     1.6500 cd         1 KS1       0.497500
     16 CAP         -3.3790    -4.0500     1.4850 ca         1 KS1      -0.255200
     17 CAF         -4.6230    -4.3080     0.9140 ca         1 KS1      -0.019000
     18 CAS         -5.0200    -5.6400     0.7830 ca         1 KS1      -0.228100
     19 CAD         -6.2130    -6.3030     0.2530 cc         1 KS1      -0.152200
     20 CAB         -6.0210    -7.6230     0.3960 cd         1 KS1      -0.262100
     21 NAO         -4.8020    -7.8570     0.9740 na         1 KS1       0.261900
     22 CAT         -4.1630    -6.6660     1.2250 ca         1 KS1       0.235800
     23 NAM         -2.9870    -6.3670     1.7620 nb         1 KS1      -0.578000
     24 CAE         -2.5820    -5.1230     1.8940 ca         1 KS1       0.443200
     25 HAI         -0.3700    -0.8900    -0.4960 hc         1 KS1       0.029450
     26 HAIA        -0.3700     0.8890    -0.4960 hc         1 KS1       0.029450
     27 HAG          1.9090    -0.8890    -0.4960 hc         1 KS1       0.016200
     28 HAGA         1.9090     0.8890    -0.4960 hc         1 KS1       0.016200
     29 HAH          2.8560    -0.6230     1.6110 hc         1 KS1       0.016200
     30 HAHA         2.1710     1.0120     1.8150 hc         1 KS1       0.016200
     31 HAJ          0.7700    -0.2830     3.2710 hc         1 KS1       0.029450
     32 HAJA         0.7690    -1.6820     2.1580 hc         1 KS1       0.029450
     33 HAW         -0.6290     1.0130     1.8160 h1         1 KS1       0.063700
     34 H2          -4.8950     1.8450     3.3080 h5         1 KS1      -0.005900
     35 HNAA        -5.5520    -3.3380     2.8560 hn         1 KS1       0.284300
     36 HNAB        -6.8650    -2.2600     2.5140 hn         1 KS1       0.284300
     37 HAF         -5.3540    -3.5140     0.8230 ha         1 KS1       0.123000
     38 HAD         -7.0840    -5.8200    -0.1730 ha         1 KS1       0.131000
     39 HAB         -6.7250    -8.3900     0.0980 h4         1 KS1       0.143000
     40 HNAO        -4.4310    -8.7630     1.1840 hn         1 KS1       0.120700
     41 HAE         -1.6100    -4.9260     2.3290 h4         1 KS1      -0.008900
@<TRIPOS>BOND
     1     1     2 1   
     2     1     5 1   
     3     1    25 1   
     4     1    26 1   
     5     2     3 1   
     6     2    27 1   
     7     2    28 1   
     8     3     4 1   
     9     3    29 1   
    10     3    30 1   
    11     4     5 1   
    12     4    31 1   
    13     4    32 1   
    14     5     6 1   
    15     5    33 1   
    16     6     7 1   
    17     6     8 1   
    18     7    15 2   
    19     8     9 ar  
    20     8    14 ar  
    21     9    10 ar  
    22    10    11 ar  
    23    10    34 1   
    24    11    12 ar  
    25    12    13 1   
    26    12    14 ar  
    27    13    35 1   
    28    13    36 1   
    29    14    15 1   
    30    15    16 1   
    31    16    17 ar  
    32    16    24 ar  
    33    17    18 ar  
    34    17    37 1   
    35    18    19 1   
    36    18    22 ar  
    37    19    20 2   
    38    19    38 1   
    39    20    21 1   
    40    20    39 1   
    41    21    22 1   
    42    21    40 1   
    43    22    23 ar  
    44    23    24 ar  
    45    24    41 1   
@<TRIPOS>SUBSTRUCTURE
     1 KS1         1 TEMP              0 ****  ****    0 ROOT
