@<TRIPOS>MOLECULE
molecule
   42    44     1     0     0
SMALL
bcc


@<TRIPOS>ATOM
      1 O3'          0.0000     0.0000     0.0000 oh         1 KS2      -0.602800
      2 C3'          1.4290     0.0000     0.0000 c3         1 KS2       0.109100
      3 C4'          1.9410     0.0000     1.4440 c3         1 KS2       0.104100
      4 O4'          1.5300     1.2020     2.0970 oh         1 KS2      -0.603800
      5 C2'          1.9420    -1.2550    -0.7130 c3         1 KS2       0.111100
      6 O2'          1.5300    -1.2290    -2.0800 oh         1 KS2      -0.604800
      7 C1'          3.4710    -1.2850    -0.6390 c3         1 KS2       0.136800
      8 O5'          3.8810    -1.2520     0.7300 os         1 KS2      -0.381600
      9 C5'          3.4710    -0.0790     1.4340 c3         1 KS2       0.144100
     10 C6'          3.9880    -0.1400     2.8720 c3         1 KS2       0.152400
     11 O6'          5.4160    -0.0960     2.8670 oh         1 KS2      -0.600800
     12 C1           3.9800    -2.5470    -1.2870 cc         1 KS2       0.374800
     13 N5           4.8900    -2.6240    -2.2960 na         1 KS2      -0.420700
     14 C4           5.0450    -3.9580    -2.5560 cc         1 KS2       0.428000
     15 N3           4.2560    -4.6060    -1.7290 nd         1 KS2      -0.350000
     16 N2           3.6330    -3.7680    -0.9780 nd         1 KS2      -0.338000
     17 C6           5.9330    -4.5580    -3.5770 ca         1 KS2      -0.124500
     18 C11          6.7230    -3.7410    -4.3860 ca         1 KS2      -0.099500
     19 C10          7.5490    -4.3060    -5.3350 ca         1 KS2      -0.129000
     20 C9           7.5950    -5.6800    -5.4860 ca         1 KS2      -0.070300
     21 C12          8.4990    -6.2920    -6.5250 c3         1 KS2      -0.050800
     22 C8           6.8140    -6.4960    -4.6870 ca         1 KS2      -0.129000
     23 C7           5.9880    -5.9440    -3.7300 ca         1 KS2      -0.099500
     24 H1          -0.3140     0.7630    -0.4560 ho         1 KS2       0.414000
     25 H2           1.7960     0.8810    -0.5130 h1         1 KS2       0.056700
     26 H3           1.5400    -0.8590     1.9690 h1         1 KS2       0.062700
     27 H4           0.8050     1.0170     2.6700 ho         1 KS2       0.415000
     28 H5           1.5400    -2.1350    -0.2250 h1         1 KS2       0.080700
     29 H6           0.8020    -1.8160    -2.2010 ho         1 KS2       0.421000
     30 H7           3.8730    -0.4220    -1.1550 h1         1 KS2       0.051700
     31 H8           3.8720     0.7970     0.9380 h1         1 KS2       0.060700
     32 H9           3.6560    -1.0610     3.3360 h1         1 KS2       0.039700
     33 H10          3.6030     0.7050     3.4310 h1         1 KS2       0.039700
     34 H11          5.7280     0.0960     3.7360 ho         1 KS2       0.404000
     35 H12          5.3510    -1.8620    -2.7530 hn         1 KS2       0.311700
     36 H13          6.6880    -2.6640    -4.2690 ha         1 KS2       0.139500
     37 H14          8.1630    -3.6730    -5.9640 ha         1 KS2       0.136000
     38 H15          8.0550    -7.2090    -6.8950 hc         1 KS2       0.045700
     39 H16          8.6280    -5.5970    -7.3460 hc         1 KS2       0.045700
     40 H17          9.4630    -6.5110    -6.0820 hc         1 KS2       0.045700
     41 H18          6.8560    -7.5720    -4.8080 ha         1 KS2       0.136000
     42 H19          5.3770    -6.5840    -3.1050 ha         1 KS2       0.139500
@<TRIPOS>BOND
     1     1     2 1
     2     4     3 1
     3     2     3 1
     4     2     5 1
     5     3     9 1
     6     6     5 1
     7     5     7 1
     8    11    10 1
     9     9    10 1
    10     9     8 1
    11     7     8 1
    12     7    12 1
    13    16    12 2
    14    16    15 1
    15    12    13 1
    16    15    14 2
    17    13    14 1
    18    14    17 1
    19    17    23 ar
    20    17    18 ar
    21    23    22 ar
    22    18    19 ar
    23    22    20 ar
    24    19    20 ar
    25    20    21 1
    26     1    24 1
    27     2    25 1
    28     3    26 1
    29     4    27 1
    30     5    28 1
    31     6    29 1
    32     7    30 1
    33     9    31 1
    34    10    32 1
    35    10    33 1
    36    11    34 1
    37    13    35 1
    38    18    36 1
    39    19    37 1
    40    21    38 1
    41    21    39 1
    42    21    40 1
    43    22    41 1
    44    23    42 1
@<TRIPOS>SUBSTRUCTURE
     1 KS2         1 TEMP              0 ****  ****    0 ROOT
