@<TRIPOS>MOLECULE
molecule
   45    48     1     0     0
SMALL
bcc


@<TRIPOS>ATOM
      1 O6'          0.0000     0.0000     0.0000 oh         1 KS3      -0.599800
      2 C6'          1.4290     0.0000     0.0000 c3         1 KS3       0.152400
      3 C5'          1.9390     0.0000     1.4420 c3         1 KS3       0.143100
      4 C4'          3.4640     0.1240     1.4450 c3         1 KS3       0.101100
      5 O4'          3.8430     1.3710     0.8560 oh         1 KS3      -0.603800
      6 O5'          1.5610    -1.2220     2.0820 os         1 KS3      -0.380600
      7 C1'          1.9680    -1.3150     3.4480 c3         1 KS3       0.130800
      8 C2'          3.4950    -1.2430     3.5310 c3         1 KS3       0.114100
      9 O2'          3.9020    -1.2790     4.9000 oh         1 KS3      -0.603800
     10 C3'          3.9730     0.0630     2.8880 c3         1 KS3       0.105100
     11 O3'          5.4000     0.1050     2.8950 oh         1 KS3      -0.603800
     12 C1           1.4950    -2.6240     4.0250 cc         1 KS3       0.472800
     13 N2           0.5890    -2.7700     5.0090 na         1 KS3      -0.160400
     14 N3           0.4530    -4.1510     5.2250 nc         1 KS3      -0.534800
     15 C4           1.2640    -4.7480     4.3790 cd         1 KS3       0.632500
     16 N5           1.8890    -3.8120     3.6510 nd         1 KS3      -0.745000
     17 C6           1.4540    -6.2140     4.2500 ca         1 KS3      -0.108500
     18 C7           0.7390    -7.0710     5.0640 ca         1 KS3      -0.084000
     19 C8           0.9210    -8.4560     4.9380 ca         1 KS3      -0.044000
     20 C12          0.2110    -9.3600     5.7480 ca         1 KS3      -0.109000
     21 C13          0.4120   -10.6990     5.5980 ca         1 KS3      -0.131000
     22 C14          1.3110   -11.1880     4.6540 ca         1 KS3      -0.121000
     23 C15          2.0160   -10.3420     3.8510 ca         1 KS3      -0.120000
     24 C9           1.8360    -8.9550     3.9760 ca         1 KS3      -0.026000
     25 C10          2.5480    -8.0550     3.1620 ca         1 KS3      -0.128000
     26 C11          2.3530    -6.7180     3.2970 ca         1 KS3      -0.093000
     27 H1          -0.3140     0.2200    -0.8610 ho         1 KS3       0.404000
     28 H2           1.7900    -0.8850    -0.5110 h1         1 KS3       0.039200
     29 H3           1.7900     0.8840    -0.5110 h1         1 KS3       0.039200
     30 H4           1.5090     0.8350     1.9820 h1         1 KS3       0.061700
     31 H5           3.8930    -0.6930     0.8770 h1         1 KS3       0.061700
     32 H6           4.5500     1.2300     0.2480 ho         1 KS3       0.414000
     33 H7           1.5390    -0.4920     4.0070 h1         1 KS3       0.054700
     34 H8           3.9240    -2.0840     3.0000 h1         1 KS3       0.080700
     35 H9           4.7330    -1.7190     4.9690 ho         1 KS3       0.422000
     36 H10          3.5780     0.9050     3.4450 h1         1 KS3       0.057700
     37 H11          5.6900     0.8930     3.3240 ho         1 KS3       0.415000
     38 H12          0.1070    -2.0380     5.4920 hn         1 KS3       0.333700
     39 H13         -0.0500    -6.6840     5.6980 ha         1 KS3       0.151000
     40 H14         -0.4910    -8.9940     6.4860 ha         1 KS3       0.134000
     41 H15         -0.1360   -11.3940     6.2230 ha         1 KS3       0.128000
     42 H16          1.4510   -12.2570     4.5550 ha         1 KS3       0.128000
     43 H17          2.7110   -10.7380     3.1210 ha         1 KS3       0.132000
     44 H18          3.2450    -8.4290     2.4220 ha         1 KS3       0.135000
     45 H19          2.8980    -6.0320     2.6600 ha         1 KS3       0.151000
@<TRIPOS>BOND
     1    11    10 1
     2     5     4 1
     3    10     4 1
     4    10     8 1
     5     4     3 1
     6     9     8 1
     7     8     7 1
     8     1     2 1
     9     3     2 1
    10     3     6 1
    11     7     6 1
    12     7    12 1
    13    13    12 1
    14    13    14 1
    15    12    16 2
    16    14    15 2
    17    16    15 1
    18    15    17 1
    19    17    18 ar
    20    17    26 ar
    21    18    19 ar
    22    26    25 ar
    23    19    20 ar
    24    19    24 ar
    25    20    21 ar
    26    25    24 ar
    27    24    23 ar
    28    21    22 ar
    29    23    22 ar
    30     1    27 1
    31     2    28 1
    32     2    29 1
    33     3    30 1
    34     4    31 1
    35     5    32 1
    36     7    33 1
    37     8    34 1
    38     9    35 1
    39    10    36 1
    40    11    37 1
    41    13    38 1
    42    18    39 1
    43    20    40 1
    44    21    41 1
    45    22    42 1
    46    23    43 1
    47    25    44 1
    48    26    45 1
@<TRIPOS>SUBSTRUCTURE
     1 KS3         1 TEMP              0 ****  ****    0 ROOT
