@<TRIPOS>MOLECULE
KS4
   43    46     1     0     0
SMALL
bcc


@<TRIPOS>ATOM
      1 CAI          0.0000     0.0000     0.0000 cy         1 KS4      -0.051900
      2 CAH          1.5380     0.0000     0.0000 cy         1 KS4      -0.038400
      3 CAJ          1.4600     0.0000     1.5360 cy         1 KS4      -0.051900
      4 CAW          0.0780     0.6590     1.3870 cy         1 KS4      -0.061000
      5 NAX         -0.9170     0.1530     2.3350 na         1 KS4       0.398200
      6 NAM         -1.0330    -1.1770     2.7530 nc         1 KS4      -0.630100
      7 C4          -1.8730     0.9060     2.9500 ca         1 KS4       0.351800
      8 N3          -2.2060     2.1970     2.9220 nb         1 KS4      -0.704000
      9 C2          -3.2070     2.6470     3.6470 ca         1 KS4       0.714900
     10 N1          -3.9280     1.8660     4.4310 nb         1 KS4      -0.758000
     11 C6          -3.6730     0.5650     4.5270 ca         1 KS4       0.615200
     12 NAC         -4.4310    -0.2460     5.3500 nv         1 KS4      -0.536500
     13 C5          -2.6130     0.0360     3.7720 ca         1 KS4      -0.559500
     14 CAT         -2.0260    -1.2930     3.6030 cd         1 KS4       0.489500
     15 CAP         -2.4680    -2.5400     4.2710 ca         1 KS4      -0.101900
     16 CAG         -3.8260    -2.8450     4.3520 ca         1 KS4      -0.191000
     17 CAD         -1.5260    -3.4120     4.8150 ca         1 KS4      -0.066000
     18 CAE         -1.9400    -4.5730     5.4360 ca         1 KS4      -0.179000
     19 CAR         -3.2900    -4.8750     5.5210 ca         1 KS4       0.126100
     20 OAN         -3.6920    -6.0200     6.1340 os         1 KS4      -0.291900
     21 CAA         -2.6700    -6.8660     6.6670 c3         1 KS4       0.241700
     22 CAS         -4.2350    -4.0100     4.9760 ca         1 KS4       0.117100
     23 OAO         -5.5590    -4.3100     5.0560 os         1 KS4      -0.290900
     24 CAB         -6.4720    -3.3780     4.4740 c3         1 KS4       0.240700
     25 HAI         -0.4240    -0.9970     0.0270 hc         1 KS4       0.037950
     26 HAIA        -0.4240     0.6510    -0.7550 hc         1 KS4       0.037950
     27 HAH          1.9620     0.9120    -0.4030 hc         1 KS4       0.027700
     28 HAHA         1.9620    -0.9120    -0.4030 hc         1 KS4       0.027700
     29 HAJ          1.4110    -0.9970     1.9570 hc         1 KS4       0.037950
     30 HAJA         2.1920     0.6510     1.9970 hc         1 KS4       0.037950
     31 HAW          0.1340     1.7390     1.3340 h1         1 KS4       0.076700
     32 H2          -3.4500     3.7020     3.5990 h5         1 KS4      -0.005900
     33 HNAC        -4.0610    -1.1210     5.6650 hn         1 KS4       0.286800
     34 HNAA        -5.3060     0.0840     5.7070 hn         1 KS4       0.286800
     35 HAG         -4.5600    -2.1700     3.9270 ha         1 KS4       0.139000
     36 HAD         -0.4700    -3.1790     4.7510 ha         1 KS4       0.118000
     37 HAE         -1.2070    -5.2510     5.8590 ha         1 KS4       0.125000
     38 HAA         -3.1230    -7.7370     7.1240 h1         1 KS4      -0.001967
     39 HAAA        -2.0090    -7.1800     5.8680 h1         1 KS4      -0.001967
     40 HAAB        -2.1030    -6.3210     7.4120 h1         1 KS4      -0.001967
     41 HAB         -6.4450    -2.4500     5.0310 h1         1 KS4      -0.002633
     42 HABA        -7.4740    -3.7870     4.5030 h1         1 KS4      -0.002633
     43 HABB        -6.1890    -3.1900     3.4450 h1         1 KS4      -0.002633
@<TRIPOS>BOND
     1     1     2 1   
     2     1     4 1   
     3     1    25 1   
     4     1    26 1   
     5     2     3 1   
     6     2    27 1   
     7     2    28 1   
     8     3     4 1   
     9     3    29 1   
    10     3    30 1   
    11     4     5 1   
    12     4    31 1   
    13     5     6 1   
    14     5     7 1   
    15     6    14 2   
    16     7     8 ar  
    17     7    13 ar  
    18     8     9 ar  
    19     9    10 ar  
    20     9    32 1   
    21    10    11 ar  
    22    11    12 1   
    23    11    13 ar  
    24    12    33 1   
    25    12    34 1   
    26    13    14 1   
    27    14    15 1   
    28    15    16 ar  
    29    15    17 ar  
    30    16    22 ar  
    31    16    35 1   
    32    17    18 ar  
    33    17    36 1   
    34    18    19 ar  
    35    18    37 1   
    36    19    20 1   
    37    19    22 ar  
    38    20    21 1   
    39    21    38 1   
    40    21    39 1   
    41    21    40 1   
    42    22    23 1   
    43    23    24 1   
    44    24    41 1   
    45    24    42 1   
    46    24    43 1   
@<TRIPOS>SUBSTRUCTURE
     1 KS4         1 TEMP              0 ****  ****    0 ROOT
