@<TRIPOS>MOLECULE
KS5
   39    42     1     0     0
SMALL
bcc


@<TRIPOS>ATOM
      1 CAA          0.0000     0.0000     0.0000 c3         1 KS5      -0.011100
      2 CAV          1.5300     0.0000     0.0000 c3         1 KS5      -0.033000
      3 CAB          2.0400     0.0000     1.4430 c3         1 KS5      -0.011100
      4 NAW          2.0180    -1.1960    -0.6910 na         1 KS5       0.379200
      5 NAN          1.7480    -2.5150    -0.3100 nc         1 KS5      -0.611100
      6 C4           2.8010    -1.1970    -1.8070 ca         1 KS5       0.321800
      7 N3           3.3340    -0.2460    -2.5740 nb         1 KS5      -0.655000
      8 C2           4.0680    -0.5600    -3.6190 ca         1 KS5       0.677900
      9 N1           4.3160    -1.8090    -3.9680 nb         1 KS5      -0.694000
     10 C6           3.8270    -2.8270    -3.2650 ca         1 KS5       0.621200
     11 NAC          4.0900    -4.1330    -3.6350 nv         1 KS5      -0.647500
     12 C5           3.0380    -2.5440    -2.1400 ca         1 KS5      -0.506500
     13 CAQ          2.3340    -3.3470    -1.1400 cd         1 KS5       0.477500
     14 CAP          2.2900    -4.8270    -1.0760 ca         1 KS5      -0.092900
     15 CAJ          3.4490    -5.5570    -1.2580 ca         1 KS5      -0.068000
     16 CAR          3.3980    -6.9570    -1.1960 ca         1 KS5      -0.155300
     17 CAH          4.5560    -7.7400    -1.3760 ca         1 KS5      -0.054000
     18 CAD          4.4340    -9.0980    -1.3030 ca         1 KS5      -0.224300
     19 CAE          3.1890    -9.6720    -1.0560 ca         1 KS5       0.414200
     20 NAL          2.1130    -8.9410    -0.8900 nb         1 KS5      -0.568000
     21 CAS          2.1630    -7.6060    -0.9480 ca         1 KS5       0.377600
     22 CAI          1.0010    -6.8320    -0.7670 ca         1 KS5      -0.143300
     23 CAG          1.0700    -5.4780    -0.8250 ca         1 KS5      -0.071000
     24 HAA         -0.3610     0.9370     0.4050 hc         1 KS5       0.016200
     25 HAAA        -0.3610    -0.1180    -1.0150 hc         1 KS5       0.016200
     26 HAAB        -0.3610    -0.8200     0.6090 hc         1 KS5       0.016200
     27 HAV          1.8910     0.8840    -0.5110 h1         1 KS5       0.057700
     28 HAB          3.1190    -0.1000     1.4440 hc         1 KS5       0.016200
     29 HABA         1.6000    -0.8300     1.9810 hc         1 KS5       0.016200
     30 HABB         1.7630     0.9300     1.9240 hc         1 KS5       0.016200
     31 H2           4.4860     0.2390    -4.2190 h5         1 KS5      -0.002900
     32 HNAC         3.3930    -4.6650    -4.1170 hn         1 KS5       0.285300
     33 HNAA         4.9990    -4.5220    -3.4800 hn         1 KS5       0.285300
     34 HAJ          4.4060    -5.0520    -1.3010 ha         1 KS5       0.118000
     35 HAH          5.5160    -7.2770    -1.5670 ha         1 KS5       0.110000
     36 HAD          5.3050    -9.7280    -1.4370 ha         1 KS5       0.113000
     37 HAE          3.1070   -10.7500    -1.0010 h4         1 KS5      -0.021900
     38 HAI          0.0530    -7.3180    -0.5730 ha         1 KS5       0.120000
     39 HAG          0.1720    -4.8900    -0.6770 ha         1 KS5       0.116000
@<TRIPOS>BOND
     1     1     2 1   
     2     1    24 1   
     3     1    25 1   
     4     1    26 1   
     5     2     3 1   
     6     2     4 1   
     7     2    27 1   
     8     3    28 1   
     9     3    29 1   
    10     3    30 1   
    11     4     5 1   
    12     4     6 1   
    13     5    13 2   
    14     6     7 ar  
    15     6    12 ar  
    16     7     8 ar  
    17     8     9 ar  
    18     8    31 1   
    19     9    10 ar  
    20    10    11 1   
    21    10    12 ar  
    22    11    32 1   
    23    11    33 1   
    24    12    13 1   
    25    13    14 1   
    26    14    15 ar  
    27    14    23 ar  
    28    15    16 ar  
    29    15    34 1   
    30    16    17 ar  
    31    16    21 ar  
    32    17    18 ar  
    33    17    35 1   
    34    18    19 ar  
    35    18    36 1   
    36    19    20 ar  
    37    19    37 1   
    38    20    21 ar  
    39    21    22 ar  
    40    22    23 ar  
    41    22    38 1   
    42    23    39 1   
@<TRIPOS>SUBSTRUCTURE
     1 KS5         1 TEMP              0 ****  ****    0 ROOT
