@<TRIPOS>MOLECULE
molecule
   39    42     1     0     0
SMALL
bcc


@<TRIPOS>ATOM
      1 CAA          0.0000     0.0000     0.0000 c3         1 KS5      -0.107100
      2 CAV          1.5300     0.0000     0.0000 c3         1 KS5       0.085000
      3 CAB          2.0400     0.0000     1.4430 c3         1 KS5      -0.107100
      4 NAW          2.0180    -1.1960    -0.6910 na         1 KS5      -0.025800
      5 NAN          1.7480    -2.5150    -0.3100 nc         1 KS5      -0.485100
      6 C4           2.8010    -1.1970    -1.8070 ca         1 KS5       0.514800
      7 N3           3.3340    -0.2460    -2.5740 nb         1 KS5      -0.780000
      8 C2           4.0680    -0.5600    -3.6190 ca         1 KS5       0.731900
      9 N1           4.3160    -1.8090    -3.9680 nb         1 KS5      -0.800000
     10 C6           3.8270    -2.8270    -3.2650 ca         1 KS5       0.785200
     11 NAC          4.0900    -4.1330    -3.6350 nv         1 KS5      -1.073500
     12 C5           3.0380    -2.5440    -2.1400 ca         1 KS5      -0.496500
     13 CAQ          2.3340    -3.3470    -1.1400 cd         1 KS5       0.441500
     14 CAP          2.2900    -4.8270    -1.0760 ca         1 KS5      -0.093900
     15 CAJ          3.4490    -5.5570    -1.2580 ca         1 KS5      -0.076000
     16 CAR          3.3980    -6.9570    -1.1960 ca         1 KS5      -0.164300
     17 CAH          4.5560    -7.7400    -1.3760 ca         1 KS5      -0.077000
     18 CAD          4.4340    -9.0980    -1.3030 ca         1 KS5      -0.258300
     19 CAE          3.1890    -9.6720    -1.0560 ca         1 KS5       0.435200
     20 NAL          2.1130    -8.9410    -0.8900 nb         1 KS5      -0.680000
     21 CAS          2.1630    -7.6060    -0.9480 ca         1 KS5       0.423600
     22 CAI          1.0010    -6.8320    -0.7670 ca         1 KS5      -0.169300
     23 CAG          1.0700    -5.4780    -0.8250 ca         1 KS5      -0.096000
     24 HAA         -0.3610     0.9370     0.4050 hc         1 KS5       0.048867
     25 HAAA        -0.3610    -0.1180    -1.0150 hc         1 KS5       0.048867
     26 HAAB        -0.3610    -0.8200     0.6090 hc         1 KS5       0.048867
     27 HAV          1.8910     0.8840    -0.5110 h1         1 KS5       0.086700
     28 HAB          3.1190    -0.1000     1.4440 hc         1 KS5       0.048867
     29 HABA         1.6000    -0.8300     1.9810 hc         1 KS5       0.048867
     30 HABB         1.7630     0.9300     1.9240 hc         1 KS5       0.048867
     31 H2           4.4860     0.2390    -4.2190 h5         1 KS5       0.061100
     32 HNAC         3.3930    -4.6650    -4.1170 hn         1 KS5       0.443800
     33 HNAA         4.9990    -4.5220    -3.4800 hn         1 KS5       0.443800
     34 HAJ          4.4060    -5.0520    -1.3010 ha         1 KS5       0.143000
     35 HAH          5.5160    -7.2770    -1.5670 ha         1 KS5       0.138000
     36 HAD          5.3050    -9.7280    -1.4370 ha         1 KS5       0.139000
     37 HAE          3.1070   -10.7500    -1.0010 h4         1 KS5       0.024100
     38 HAI          0.0530    -7.3180    -0.5730 ha         1 KS5       0.153000
     39 HAG          0.1720    -4.8900    -0.6770 ha         1 KS5       0.146000
@<TRIPOS>BOND
     1     1     2 1
     2     2     3 1
     3     2     4 1
     4     4     5 1
     5     4     6 1
     6     5    13 2
     7     6     7 ar
     8     6    12 ar
     9     7     8 ar
    10     8     9 ar
    11     9    10 ar
    12    10    11 1
    13    10    12 ar
    14    12    13 1
    15    13    14 1
    16    14    15 ar
    17    14    23 ar
    18    15    16 ar
    19    16    17 ar
    20    16    21 ar
    21    17    18 ar
    22    18    19 ar
    23    19    20 ar
    24    20    21 ar
    25    21    22 ar
    26    22    23 ar
    27     1    24 1
    28     1    25 1
    29     1    26 1
    30     2    27 1
    31     3    28 1
    32     3    29 1
    33     3    30 1
    34     8    31 1
    35    11    32 1
    36    11    33 1
    37    15    34 1
    38    17    35 1
    39    18    36 1
    40    19    37 1
    41    22    38 1
    42    23    39 1
@<TRIPOS>SUBSTRUCTURE
     1 KS5         1 TEMP              0 ****  ****    0 ROOT
