@<TRIPOS>MOLECULE
molecule
   56    63     1     0     0
SMALL
bcc


@<TRIPOS>ATOM
      1 O3           0.0000     0.0000     0.0000 o          1 KSA      -0.528000
      2 C22          1.2080     0.0000     0.0000 c          1 KSA       0.612100
      3 O5           1.8780    -0.0020    -1.1620 os         1 KSA      -0.438900
      4 C26          1.1520    -0.0030    -2.4200 c3         1 KSA       0.144700
      5 C1           1.9620     0.0000     1.3060 c3         1 KSA       0.071800
      6 O4           1.0480    -0.0150     2.4040 oh         1 KSA      -0.543800
      7 C2           2.8810     1.2340     1.3920 c3         1 KSA       0.297500
      8 O1           4.1980     0.7490     1.1090 os         1 KSA      -0.374600
      9 C25          2.4670     2.2830     0.3580 c3         1 KSA      -0.104100
     10 N1           2.8220     1.7810     2.7500 na         1 KSA      -0.072300
     11 C3           3.6010     1.3320     3.8000 ca         1 KSA       0.024800
     12 C4           4.4690     0.2380     3.8630 ca         1 KSA      -0.032200
     13 N2           4.7650    -0.7120     2.8920 na         1 KSA      -0.103300
     14 C24          4.3230    -0.6190     1.4980 c3         1 KSA       0.276800
     15 C27          2.9070    -1.2160     1.3780 c3         1 KSA      -0.159400
     16 C17          5.5580    -1.6790     3.4510 ca         1 KSA       0.011800
     17 C18          6.0850    -2.8500     2.9080 ca         1 KSA      -0.178000
     18 C19          6.9030    -3.6130     3.7230 ca         1 KSA      -0.088000
     19 C20          7.1970    -3.2460     5.0240 ca         1 KSA      -0.175000
     20 C21          6.6840    -2.0920     5.5900 ca         1 KSA      -0.043000
     21 C16          5.8530    -1.3100     4.7870 cp         1 KSA      -0.091000
     22 C5           5.1420    -0.0620     5.0460 cp         1 KSA       0.012000
     23 C6           5.0040     0.8020     6.1570 ca         1 KSA      -0.144600
     24 C15          5.6230     0.7930     7.4910 c          1 KSA       0.724100
     25 O2           6.4390    -0.0250     7.8710 o          1 KSA      -0.644500
     26 C7           4.1360     1.8890     6.0830 ca         1 KSA      -0.055300
     27 C23          4.2010     2.5780     7.4250 c3         1 KSA       0.143300
     28 N3           5.1610     1.8150     8.2310 ns         1 KSA      -0.587900
     29 C8           3.4090     2.1450     4.9260 cp         1 KSA      -0.057000
     30 C9           2.4030     3.1290     4.5250 cp         1 KSA      -0.082000
     31 C10          2.0550     2.8360     3.1850 ca         1 KSA       0.024800
     32 C11          1.0840     3.5870     2.5250 ca         1 KSA      -0.158000
     33 C14          1.8010     4.1770     5.2200 ca         1 KSA      -0.072000
     34 C13          0.8410     4.9100     4.5410 ca         1 KSA      -0.162000
     35 C12          0.4930     4.6190     3.2350 ca         1 KSA      -0.098000
     36 H261         1.8540     0.0710    -3.2410 h1         1 KSA       0.052700
     37 H262         0.4750     0.8410    -2.4460 h1         1 KSA       0.052700
     38 H263         0.5870    -0.9230    -2.5100 h1         1 KSA       0.052700
     39 HO4          0.4890    -0.7710     2.3370 ho         1 KSA       0.424000
     40 H251         1.3860     2.3150     0.2890 hc         1 KSA       0.072033
     41 H252         2.8380     3.2550     0.6610 hc         1 KSA       0.072033
     42 H253         2.8840     2.0230    -0.6070 hc         1 KSA       0.072033
     43 H24          5.0120    -1.1400     0.8440 h2         1 KSA       0.111700
     44 H271         2.8250    -1.8100     0.4760 hc         1 KSA       0.086200
     45 H272         2.6780    -1.8190     2.2490 hc         1 KSA       0.086200
     46 H18          5.8630    -3.1500     1.8910 ha         1 KSA       0.128000
     47 H19          7.3310    -4.5260     3.3270 ha         1 KSA       0.126000
     48 H20          7.8440    -3.8810     5.6170 ha         1 KSA       0.131000
     49 H21          6.9170    -1.8080     6.6100 ha         1 KSA       0.178000
     50 H231         3.2260     2.5630     7.8970 h1         1 KSA       0.059700
     51 H232         4.5470     3.5970     7.3020 h1         1 KSA       0.059700
     52 HN3          5.4260     2.0220     9.1730 hn         1 KSA       0.350500
     53 H11          0.8020     3.3710     1.5020 ha         1 KSA       0.141000
     54 H14          2.0700     4.4070     6.2440 ha         1 KSA       0.136000
     55 H13          0.3460     5.7290     5.0490 ha         1 KSA       0.129000
     56 H12         -0.2640     5.2220     2.7480 ha         1 KSA       0.129000
@<TRIPOS>BOND
     1     1     2 2
     2     2     3 1
     3     2     5 1
     4     3     4 1
     5     4    36 1
     6     4    37 1
     7     4    38 1
     8     5     6 1
     9     5     7 1
    10     5    15 1
    11     6    39 1
    12     7     8 1
    13     7     9 1
    14     7    10 1
    15     8    14 1
    16     9    40 1
    17     9    41 1
    18     9    42 1
    19    10    11 1
    20    10    31 1
    21    11    12 ar
    22    11    29 ar
    23    12    13 1
    24    12    22 ar
    25    13    14 1
    26    13    16 1
    27    14    15 1
    28    14    43 1
    29    15    44 1
    30    15    45 1
    31    16    17 ar
    32    16    21 ar
    33    17    18 ar
    34    17    46 1
    35    18    19 ar
    36    18    47 1
    37    19    20 ar
    38    19    48 1
    39    20    21 ar
    40    20    49 1
    41    21    22 1
    42    22    23 ar
    43    23    24 1
    44    23    26 ar
    45    24    25 2
    46    24    28 1
    47    26    27 1
    48    26    29 ar
    49    27    28 1
    50    27    50 1
    51    27    51 1
    52    28    52 1
    53    29    30 1
    54    30    31 ar
    55    30    33 ar
    56    31    32 ar
    57    32    35 ar
    58    32    53 1
    59    33    34 ar
    60    33    54 1
    61    34    35 ar
    62    34    55 1
    63    35    56 1
@<TRIPOS>SUBSTRUCTURE
     1 KSA         1 TEMP              0 ****  ****    0 ROOT
