@<TRIPOS>MOLECULE
KSC
   50    53     1     0     0
SMALL
bcc


@<TRIPOS>ATOM
      1 C1           0.0000     0.0000     0.0000 cc         1 KSC       0.609500
      2 N2           1.3120     0.0000     0.0000 nd         1 KSC      -0.794100
      3 N3           1.7790     0.0000     1.3190 na         1 KSC       0.522200
      4 C4           0.7000    -0.0010     2.1570 cd         1 KSC       0.346500
      5 C5          -0.4500    -0.0010     1.3410 cc         1 KSC      -0.641800
      6 C6           3.0420    -0.0010     1.8430 cc         1 KSC       0.007300
      7 C7           3.1950    -0.0010     3.2170 cd         1 KSC      -0.384300
      8 C8           2.0610    -0.0010     4.0230 cc         1 KSC       0.511600
      9 N9           0.8600    -0.0010     3.4810 nd         1 KSC      -0.681000
     10 C10          2.2070    -0.0020     5.5240 c3         1 KSC      -0.049400
     11 N11          4.1430    -0.0000     1.0160 nu         1 KSC      -0.324600
     12 C12          5.4900    -0.0010     1.5910 c3         1 KSC       0.192800
     13 C13          6.5250    -0.0010     0.4630 cx         1 KSC      -0.162700
     14 C14          7.9980    -0.1190     0.8570 cx         1 KSC      -0.054900
     15 C15          7.4470     1.2150     0.3510 cx         1 KSC      -0.054900
     16 N16         -0.8130     0.0060    -1.1300 nu         1 KSC      -0.228600
     17 C17         -0.2430    -0.1100    -2.4030 ca         1 KSC      -0.081400
     18 C18          0.9470    -0.8070    -2.5710 ca         1 KSC      -0.071500
     19 C19          1.5090    -0.9210    -3.8270 ca         1 KSC      -0.152000
     20 C20          0.8860    -0.3390    -4.9210 ca         1 KSC       0.162100
     21 C21         -0.3020     0.3580    -4.7540 ca         1 KSC      -0.152000
     22 C22         -0.8690     0.4670    -3.5000 ca         1 KSC      -0.071500
     23 C23         -1.8390     0.0050     1.7950 c          1 KSC       0.440300
     24 O24         -2.4220    -1.0480     1.9820 o          1 KSC      -0.414100
     25 N25         -2.4750     1.1740     2.0050 nz         1 KSC       0.187600
     26 O26          1.4400    -0.4510    -6.1580 os         1 KSC      -0.299900
     27 C27          0.7450     0.1720    -7.2400 c3         1 KSC       0.243700
     28 H7           4.1830    -0.0010     3.6590 ha         1 KSC       0.160000
     29 H10          2.6750    -0.9270     5.8400 hc         1 KSC       0.028367
     30 H10A         1.2290     0.0830     5.9820 hc         1 KSC       0.028367
     31 H10B         2.8230     0.8360     5.8270 hc         1 KSC       0.028367
     32 HN11         4.0220     0.0320     0.0230 hn         1 KSC       0.322800
     33 H12          5.6220    -0.8850     2.2020 h1         1 KSC       0.031200
     34 H12A         5.6220     0.8840     2.2020 h1         1 KSC       0.031200
     35 H13          6.2690    -0.4650    -0.4820 hc         1 KSC       0.071700
     36 H14          8.6270    -0.6600     0.1600 hc         1 KSC       0.051950
     37 H14A         8.1950    -0.1700     1.9210 hc         1 KSC       0.051950
     38 H15          7.7380     1.4890    -0.6560 hc         1 KSC       0.051950
     39 H15A         7.3070     1.9790     1.1050 hc         1 KSC       0.051950
     40 HN16        -1.8080     0.0560    -1.0300 hn         1 KSC       0.265800
     41 H18          1.4340    -1.2620    -1.7160 ha         1 KSC       0.116500
     42 H19          2.4370    -1.4640    -3.9580 ha         1 KSC       0.126000
     43 H21         -0.7890     0.8100    -5.6100 ha         1 KSC       0.126000
     44 H22         -1.7970     1.0120    -3.3700 ha         1 KSC       0.116500
     45 HN25        -1.9740     1.9130     1.5530 hn         1 KSC       0.243800
     46 HN2A        -3.4020     1.1220     1.6300 hn         1 KSC       0.243800
     47 H27         -0.2450    -0.2590    -7.3300 h1         1 KSC       0.002033
     48 H27A         0.6590     1.2350    -7.0490 h1         1 KSC       0.002033
     49 H27B         1.2930     0.0140    -8.1610 h1         1 KSC       0.002033
     50 H253        -2.5240     1.3550     2.9880 hn         1 KSC       0.243800
@<TRIPOS>BOND
     1     1     2 2   
     2     1     5 1   
     3     1    16 1   
     4     2     3 1   
     5     3     4 1   
     6     3     6 1   
     7     4     5 2   
     8     4     9 1   
     9     5    23 1   
    10     6     7 2   
    11     6    11 1   
    12     7     8 1   
    13     7    28 1   
    14     8     9 2   
    15     8    10 1   
    16    10    29 1   
    17    10    30 1   
    18    10    31 1   
    19    11    12 1   
    20    11    32 1   
    21    12    13 1   
    22    12    33 1   
    23    12    34 1   
    24    13    14 1   
    25    13    15 1   
    26    13    35 1   
    27    14    15 1   
    28    14    36 1   
    29    14    37 1   
    30    15    38 1   
    31    15    39 1   
    32    16    17 1   
    33    16    40 1   
    34    17    18 ar  
    35    17    22 ar  
    36    18    19 ar  
    37    18    41 1   
    38    19    20 ar  
    39    19    42 1   
    40    20    21 ar  
    41    20    26 1   
    42    21    22 ar  
    43    21    43 1   
    44    22    44 1   
    45    23    24 2   
    46    23    25 1   
    47    25    45 1   
    48    25    46 1   
    49    25    50 1   
    50    26    27 1   
    51    27    47 1   
    52    27    48 1   
    53    27    49 1   
@<TRIPOS>SUBSTRUCTURE
     1 KSC         1 TEMP              0 ****  ****    0 ROOT
