@<TRIPOS>MOLECULE
molecule
   59    61     1     0     0
SMALL
bcc


@<TRIPOS>ATOM
      1 C1           0.0000     0.0000     0.0000 cc         1 KSE       0.729500
      2 N2           1.3110     0.0000     0.0000 nd         1 KSE      -0.634100
      3 N3           1.7780     0.0000     1.3190 na         1 KSE       0.025200
      4 C4           0.7000    -0.0000     2.1570 cd         1 KSE       0.541500
      5 C5          -0.4490     0.0000     1.3410 cc         1 KSE      -0.554800
      6 C6           3.0420    -0.0010     1.8420 cc         1 KSE       0.336300
      7 C7           3.1950    -0.0010     3.2170 cd         1 KSE      -0.393300
      8 C8           2.0620    -0.0020     4.0240 cc         1 KSE       0.569600
      9 N9           0.8600    -0.0010     3.4810 nd         1 KSE      -0.751000
     10 C11          2.2090    -0.0020     5.5230 c3         1 KSE      -0.156400
     11 N15          4.1420    -0.0010     1.0160 nu         1 KSE      -0.828600
     12 C16          5.4910    -0.0020     1.5900 c3         1 KSE       0.222800
     13 C17          6.5250    -0.0030     0.4620 c3         1 KSE       0.093200
     14 N20          6.2700    -1.1370    -0.4350 nz         1 KSE      -0.812600
     15 C21          6.4220     1.3040    -0.3260 c3         1 KSE      -0.115600
     16 C25          7.9290    -0.1290     1.0580 c3         1 KSE      -0.115600
     17 N32         -0.8130     0.0060    -1.1300 nu         1 KSE      -0.705600
     18 C33         -0.2430     0.1260    -2.4000 ca         1 KSE       0.201600
     19 C34         -0.9090    -0.3760    -3.5110 ca         1 KSE      -0.234500
     20 C35         -0.3440    -0.2570    -4.7710 ca         1 KSE       0.210600
     21 C36          0.8880     0.3630    -4.9220 ca         1 KSE      -0.321000
     22 C37          1.5550     0.8640    -3.8130 ca         1 KSE       0.210600
     23 C38          0.9880     0.7510    -2.5530 ca         1 KSE      -0.234500
     24 C42         -1.8390     0.0020     1.7950 c          1 KSE       0.566300
     25 O43         -2.4180    -1.0530     1.9830 o          1 KSE      -0.384100
     26 N44         -2.4790     1.1690     2.0030 nz         1 KSE      -0.680400
     27 O48         -0.9950    -0.7470    -5.8570 os         1 KSE      -0.327900
     28 O49          2.7620     1.4690    -3.9630 os         1 KSE      -0.327900
     29 C50          3.2840     1.5560    -5.2900 c3         1 KSE       0.124700
     30 C54         -0.3540    -0.5900    -7.1250 c3         1 KSE       0.124700
     31 H7           4.1830    -0.0020     3.6590 ha         1 KSE       0.173000
     32 H11          2.7190    -0.9040     5.8360 hc         1 KSE       0.081033
     33 H11A         1.2280     0.0360     5.9820 hc         1 KSE       0.081033
     34 H11B         2.7840     0.8640     5.8300 hc         1 KSE       0.081033
     35 HN15         4.0220    -0.0130     0.0220 hn         1 KSE       0.457800
     36 H16          5.6240     0.8820     2.2010 h1         1 KSE       0.091200
     37 H16A         5.6220    -0.8870     2.2010 h1         1 KSE       0.091200
     38 HN20         5.5000    -0.9210    -1.0370 hn         1 KSE       0.460800
     39 HN2A         6.0510    -1.9490     0.1080 hn         1 KSE       0.460800
     40 H21          5.4020     1.4430    -0.6630 hc         1 KSE       0.084700
     41 H21A         6.7070     2.1330     0.3110 hc         1 KSE       0.084700
     42 H21B         7.0840     1.2630    -1.1820 hc         1 KSE       0.084700
     43 H25          8.6650    -0.0580     0.2670 hc         1 KSE       0.084700
     44 H25A         8.0900     0.6690     1.7730 hc         1 KSE       0.084700
     45 H25B         8.0250    -1.0860     1.5570 hc         1 KSE       0.084700
     46 HN32        -1.8040    -0.0970    -1.0340 hn         1 KSE       0.462800
     47 H34         -1.8710    -0.8600    -3.3930 ha         1 KSE       0.154000
     48 H36          1.3310     0.4530    -5.9070 ha         1 KSE       0.157000
     49 H38          1.5090     1.1420    -1.6880 ha         1 KSE       0.154000
     50 HN44        -2.6570     1.2820     2.9820 hn         1 KSE       0.478800
     51 HN4A        -1.9080     1.9250     1.6790 hn         1 KSE       0.478800
     52 H50          4.2400     2.0650    -5.2700 h1         1 KSE       0.052033
     53 H50A         2.5930     2.1090    -5.9150 h1         1 KSE       0.052033
     54 H50B         3.4150     0.5580    -5.6920 h1         1 KSE       0.052033
     55 H54          0.6080    -1.0880    -7.1070 h1         1 KSE       0.052033
     56 H54A        -0.9720    -1.0270    -7.8990 h1         1 KSE       0.052033
     57 H54B        -0.2110     0.4640    -7.3290 h1         1 KSE       0.052033
     58 H203         7.0880    -1.3190    -0.9830 hn         1 KSE       0.460800
     59 H443        -3.3480     1.1670     1.5060 hn         1 KSE       0.478800
@<TRIPOS>BOND
     1     1     2 2
     2     1     5 1
     3     1    17 1
     4     2     3 1
     5     3     4 1
     6     3     6 1
     7     4     5 2
     8     4     9 1
     9     5    24 1
    10     6     7 2
    11     6    11 1
    12     7     8 1
    13     8     9 2
    14     8    10 1
    15    11    12 1
    16    12    13 1
    17    13    14 1
    18    13    15 1
    19    13    16 1
    20    17    18 1
    21    18    19 ar
    22    18    23 ar
    23    19    20 ar
    24    20    21 ar
    25    20    27 1
    26    21    22 ar
    27    22    23 ar
    28    22    28 1
    29    24    25 2
    30    24    26 1
    31    27    30 1
    32    28    29 1
    33     7    31 1
    34    10    32 1
    35    10    33 1
    36    10    34 1
    37    11    35 1
    38    12    36 1
    39    12    37 1
    40    14    38 1
    41    14    39 1
    42    15    40 1
    43    15    41 1
    44    15    42 1
    45    16    43 1
    46    16    44 1
    47    16    45 1
    48    17    46 1
    49    19    47 1
    50    21    48 1
    51    23    49 1
    52    26    50 1
    53    26    51 1
    54    29    52 1
    55    29    53 1
    56    29    54 1
    57    30    55 1
    58    30    56 1
    59    30    57 1
    60    58    14 1
    61    59    26 1
@<TRIPOS>SUBSTRUCTURE
     1 KSE         1 TEMP              0 ****  ****    0 ROOT
