@<TRIPOS>MOLECULE
KSF
   36    39     1     0     0
SMALL
bcc


@<TRIPOS>ATOM
      1 Cl23         0.0000     0.0000     0.0000 cl         1 KSF      -0.027400
      2 C18          1.7350     0.0000     0.0000 ca         1 KSF      -0.072600
      3 C17          2.4320     0.0000     1.2040 ca         1 KSF      -0.005400
      4 C22          3.8200     0.0000     1.1990 ca         1 KSF      -0.114000
      5 C21          4.5050    -0.0000     0.0010 ca         1 KSF      -0.076000
      6 C20          3.8110    -0.0000    -1.1950 ca         1 KSF      -0.110000
      7 C19          2.4280    -0.0070    -1.1960 ca         1 KSF      -0.078000
      8 N16          1.7340     0.0000     2.4160 nu         1 KSF      -0.260300
      9 C2           2.3330     0.5040     3.5570 cc         1 KSF       0.583200
     10 N3           3.5150     1.0880     3.4850 nd         1 KSF      -0.713000
     11 C4           4.1170     1.5820     4.5690 cd         1 KSF       0.487200
     12 C5           3.5400     1.5070     5.7980 cc         1 KSF      -0.402600
     13 N6           2.3010     0.9040     5.9360 na         1 KSF       0.606800
     14 C7           1.4820     0.6720     6.9740 cc         1 KSF       0.129700
     15 N8           0.4060     0.0540     6.5490 nd         1 KSF      -0.482300
     16 C9           0.4850    -0.1370     5.2310 cd         1 KSF       0.015600
     17 C1           1.6790     0.3990     4.8070 cc         1 KSF      -0.487600
     18 C10          4.2310     2.0620     6.9790 ca         1 KSF      -0.030000
     19 C11          4.4620     3.4370     7.0750 ca         1 KSF      -0.086500
     20 C12          5.1080     3.9480     8.1800 ca         1 KSF      -0.098000
     21 C13          5.5280     3.1030     9.1930 ca         1 KSF      -0.091000
     22 C14          5.3030     1.7410     9.1050 ca         1 KSF      -0.098000
     23 C15          4.6530     1.2160     8.0080 ca         1 KSF      -0.086500
     24 H22          4.3660     0.0000     2.1350 ha         1 KSF       0.158000
     25 H21          5.5890     0.0030    -0.0030 ha         1 KSF       0.105000
     26 H20          4.3520    -0.0030    -2.1340 ha         1 KSF       0.106000
     27 H19          1.8870    -0.0070    -2.1350 ha         1 KSF       0.114000
     28 HN16         0.8210    -0.4040     2.4680 hn         1 KSF       0.297800
     29 H4           5.0870     2.0540     4.4670 h4         1 KSF      -0.006900
     30 H7           1.6780     0.9510     8.0020 h5         1 KSF       0.043800
     31 H9          -0.2580    -0.6220     4.6080 h4         1 KSF       0.141000
     32 H11          4.1330     4.0990     6.2830 ha         1 KSF       0.110500
     33 H12          5.2880     5.0130     8.2560 ha         1 KSF       0.106000
     34 H13          6.0370     3.5110    10.0580 ha         1 KSF       0.104000
     35 H14          5.6320     1.0860     9.9020 ha         1 KSF       0.106000
     36 H15          4.4770     0.1490     7.9400 ha         1 KSF       0.110500
@<TRIPOS>BOND
     1     1     2 1   
     2     2     3 ar  
     3     2     7 ar  
     4     3     4 ar  
     5     3     8 1   
     6     4     5 ar  
     7     4    24 1   
     8     5     6 ar  
     9     5    25 1   
    10     6     7 ar  
    11     6    26 1   
    12     7    27 1   
    13     8     9 1   
    14     8    28 1   
    15     9    10 2   
    16     9    17 1   
    17    10    11 1   
    18    11    12 2   
    19    11    29 1   
    20    12    13 1   
    21    12    18 1   
    22    13    14 1   
    23    13    17 1   
    24    14    15 2   
    25    14    30 1   
    26    15    16 1   
    27    16    17 2   
    28    16    31 1   
    29    18    19 ar  
    30    18    23 ar  
    31    19    20 ar  
    32    19    32 1   
    33    20    21 ar  
    34    20    33 1   
    35    21    22 ar  
    36    21    34 1   
    37    22    23 ar  
    38    22    35 1   
    39    23    36 1   
@<TRIPOS>SUBSTRUCTURE
     1 KSF         1 TEMP              0 ****  ****    0 ROOT
