@<TRIPOS>MOLECULE
KSG
   51    52     1     0     0
SMALL
bcc


@<TRIPOS>ATOM
      1 C1           0.0000     0.0000     0.0000 c3         1 KSG       0.377900
      2 O1          -0.5370     1.1830     0.5900 os         1 KSG      -0.391600
      3 C2          -0.6680     2.2320    -0.3740 c3         1 KSG       0.174100
      4 C3          -0.4770     3.5620     0.3610 c3         1 KSG       0.169600
      5 O2           0.8640     3.6590     0.8380 oh         1 KSG      -0.593300
      6 C4          -0.7590     4.7570    -0.5480 c3         1 KSG       0.152100
      7 O3           0.1800     4.7460    -1.6270 oh         1 KSG      -0.581800
      8 C5          -2.1810     4.6720    -1.1060 c3         1 KSG       0.164100
      9 O4          -2.3870     5.7860    -1.9720 oh         1 KSG      -0.572800
     10 C6          -2.4060     3.3650    -1.8740 c3         1 KSG       0.152100
     11 O5          -3.7890     3.2620    -2.2240 oh         1 KSG      -0.581800
     12 C7          -2.0510     2.1360    -1.0300 c3         1 KSG       0.169600
     13 O6          -2.0770     0.9960    -1.8930 oh         1 KSG      -0.593300
     14 O7           1.4290     0.0000     0.0000 os         1 KSG      -0.412600
     15 C8           2.0180     0.0000     1.3060 c3         1 KSG       0.165100
     16 C9           3.5300     0.0520     1.1050 c3         1 KSG       0.002900
     17 C10          1.5860    -1.2440     2.0950 c3         1 KSG       0.101500
     18 C11          0.0580    -1.3540     2.1290 c3         1 KSG      -0.063400
     19 C12         -0.5610    -1.2260     0.7320 c3         1 KSG      -0.118500
     20 N1          -0.3120    -2.4280    -0.0690 nz         1 KSG       0.078400
     21 N2           2.0870    -1.1800     3.4520 nu         1 KSG      -0.511200
     22 C13          2.4040    -2.2820     4.2040 ce         1 KSG       0.436200
     23 N3           2.3120    -3.5280     3.8610 n2         1 KSG      -0.761100
     24 C14          2.9110    -2.0120     5.5930 c          1 KSG       0.922300
     25 O8           4.2450    -1.8980     5.5580 o          1 KSG      -0.848800
     26 O9           2.1710    -1.9230     6.5490 o          1 KSG      -0.848800
     27 H1          -0.3320    -0.0470    -1.0300 h2         1 KSG       0.047700
     28 H2           0.0980     2.1290    -1.1330 h1         1 KSG       0.061700
     29 H3          -1.1580     3.5960     1.2030 h1         1 KSG       0.017200
     30 HO2          0.8800     4.1710     1.6300 ho         1 KSG       0.403500
     31 H4          -0.6510     5.6730     0.0200 h1         1 KSG       0.029700
     32 HO3          0.6720     5.5500    -1.6250 ho         1 KSG       0.404500
     33 H5          -2.8840     4.7220    -0.2840 h1         1 KSG       0.013700
     34 HO4         -2.9940     6.3870    -1.5720 ho         1 KSG       0.396000
     35 H6          -1.8010     3.3690    -2.7730 h1         1 KSG       0.029700
     36 HO5         -3.8850     3.3540    -3.1570 ho         1 KSG       0.404500
     37 H7          -2.7980     2.0150    -0.2550 h1         1 KSG       0.017200
     38 HO6         -2.9700     0.7840    -2.1080 ho         1 KSG       0.403500
     39 H8           1.6950     0.8860     1.8390 h1         1 KSG       0.042700
     40 H91          3.8970    -0.9390     0.8670 hc         1 KSG       0.025700
     41 H92          3.7630     0.7270     0.2900 hc         1 KSG       0.025700
     42 H93          4.0040     0.4040     2.0130 hc         1 KSG       0.025700
     43 H10          1.9880    -2.1240     1.6080 h1         1 KSG       0.019700
     44 H111        -0.3350    -0.5660     2.7600 hc         1 KSG       0.060200
     45 H112        -0.2140    -2.3150     2.5460 hc         1 KSG       0.060200
     46 H12         -1.6300    -1.0980     0.8440 hx         1 KSG       0.088700
     47 HN11         0.2620    -2.1930    -0.8540 hn         1 KSG       0.225467
     48 HN12        -1.1830    -2.8000    -0.3910 hn         1 KSG       0.225467
     49 HN2          2.2090    -0.2770     3.8670 hn         1 KSG       0.312800
     50 HN3          1.9790    -3.7730     2.9500 hn         1 KSG       0.247400
     51 H13          0.1560    -3.1120     0.4930 hn         1 KSG       0.225467
@<TRIPOS>BOND
     1     1     2 1   
     2     1    14 1   
     3     1    19 1   
     4     1    27 1   
     5     2     3 1   
     6     3     4 1   
     7     3    12 1   
     8     3    28 1   
     9     4     5 1   
    10     4     6 1   
    11     4    29 1   
    12     5    30 1   
    13     6     7 1   
    14     6     8 1   
    15     6    31 1   
    16     7    32 1   
    17     8     9 1   
    18     8    10 1   
    19     8    33 1   
    20     9    34 1   
    21    10    11 1   
    22    10    12 1   
    23    10    35 1   
    24    11    36 1   
    25    12    13 1   
    26    12    37 1   
    27    13    38 1   
    28    14    15 1   
    29    15    16 1   
    30    15    17 1   
    31    15    39 1   
    32    16    40 1   
    33    16    41 1   
    34    16    42 1   
    35    17    18 1   
    36    17    21 1   
    37    17    43 1   
    38    18    19 1   
    39    18    44 1   
    40    18    45 1   
    41    19    20 1   
    42    19    46 1   
    43    20    47 1   
    44    20    48 1   
    45    20    51 1   
    46    21    22 1   
    47    21    49 1   
    48    22    23 2   
    49    22    24 1   
    50    23    50 1   
    51    24    25 1   
    52    24    26 1   
@<TRIPOS>SUBSTRUCTURE
     1 KSG         1 TEMP              0 ****  ****    0 ROOT
