@<TRIPOS>MOLECULE
molecule
   61    64     1     0     0
SMALL
bcc


@<TRIPOS>ATOM
      1 N1           0.0000     0.0000     0.0000 na         1 KSH       0.024200
      2 C2           1.3670     0.0000     0.0000 cc         1 KSH       0.373300
      3 C3           2.0350     0.0000     1.2110 cd         1 KSH      -0.421300
      4 C4           1.2990     0.0000     2.3900 cd         1 KSH       0.562600
      5 N5          -0.0200    -0.0010     2.3490 nc         1 KSH      -0.792000
      6 C6          -0.6750    -0.0000     1.1880 cc         1 KSH       0.545500
      7 C7          -2.0500    -0.0010     0.8760 cd         1 KSH      -0.581800
      8 C8          -2.1480    -0.0010    -0.5350 cd         1 KSH       0.710500
      9 N9          -0.9370     0.0050    -1.0380 nc         1 KSH      -0.604100
     10 C10         -3.1590    -0.0020     1.8260 c          1 KSH       0.574300
     11 O11         -3.6220     1.0530     2.2240 o          1 KSH      -0.405100
     12 N12         -3.6700    -1.1700     2.2650 nz         1 KSH      -0.680400
     13 N16         -3.3330    -0.0010    -1.2680 nu         1 KSH      -0.719600
     14 C17         -3.2940    -0.1160    -2.6600 ca         1 KSH       0.207600
     15 C18         -2.2580    -0.8110    -3.2710 ca         1 KSH      -0.231500
     16 C19         -2.2200    -0.9240    -4.6520 ca         1 KSH       0.208600
     17 C20         -3.2160    -0.3430    -5.4240 ca         1 KSH      -0.326000
     18 C21         -4.2500     0.3500    -4.8140 ca         1 KSH       0.208600
     19 C22         -4.2940     0.4590    -3.4330 ca         1 KSH      -0.231500
     20 O26         -5.2250     0.9200    -5.5720 os         1 KSH      -0.322900
     21 C27         -5.1210     0.7630    -6.9880 c3         1 KSH       0.127200
     22 O31         -1.2060    -1.6030    -5.2500 os         1 KSH      -0.322900
     23 C32         -1.2300    -1.6800    -6.6770 c3         1 KSH       0.127200
     24 C37          2.0080    -0.0010     3.7190 c3         1 KSH      -0.139700
     25 C38          0.9760    -0.0010     4.8490 c3         1 KSH      -0.081100
     26 N42          2.0670    -0.0010    -1.1860 nh         1 KSH      -0.668000
     27 C43          1.4710    -0.0010    -2.5350 c3         1 KSH       0.211800
     28 C44          2.5610     0.6120    -3.4490 c3         1 KSH      -0.094400
     29 C45          3.8570     0.0280    -2.8250 c3         1 KSH      -0.087400
     30 C46          3.5320     0.0060    -1.3170 c3         1 KSH       0.232500
     31 C53          4.1160    -1.2560    -0.6790 c3         1 KSH       0.114400
     32 O55          3.6800    -2.4040    -1.4110 oh         1 KSH      -0.604800
     33 H3           3.1180     0.0010     1.2400 ha         1 KSH       0.177000
     34 HN12        -4.6210    -1.2510     1.9660 hn         1 KSH       0.471800
     35 HN1A        -3.6310    -1.1960     3.2640 hn         1 KSH       0.471800
     36 HN16        -4.2110     0.1050    -0.7990 hn         1 KSH       0.451800
     37 H18         -1.4800    -1.2640    -2.6680 ha         1 KSH       0.155000
     38 H20         -3.1840    -0.4300    -6.5030 ha         1 KSH       0.151000
     39 H22         -5.1020     1.0010    -2.9570 ha         1 KSH       0.155000
     40 H27         -5.9530     1.2640    -7.4690 h1         1 KSH       0.047867
     41 H27A        -4.1910     1.1980    -7.3320 h1         1 KSH       0.047867
     42 H27B        -5.1420    -0.2910    -7.2370 h1         1 KSH       0.047867
     43 H32         -0.3720    -2.2440    -7.0230 h1         1 KSH       0.047867
     44 H32A        -2.1400    -2.1750    -6.9970 h1         1 KSH       0.047867
     45 H32B        -1.1970    -0.6810    -7.0930 h1         1 KSH       0.047867
     46 H37          2.6290     0.8830     3.7980 hc         1 KSH       0.074200
     47 H37A         2.6280    -0.8860     3.7970 hc         1 KSH       0.074200
     48 H38          0.3880    -0.9100     4.8020 hc         1 KSH       0.043700
     49 H38A         1.4850     0.0510     5.8040 hc         1 KSH       0.043700
     50 H38B         0.3230     0.8570     4.7420 hc         1 KSH       0.043700
     51 H43          0.5790     0.6130    -2.5510 h1         1 KSH       0.081700
     52 H43A         1.2460    -1.0140    -2.8460 h1         1 KSH       0.081700
     53 H44          2.4410     0.2770    -4.4720 hc         1 KSH       0.068200
     54 H44A         2.5560     1.6940    -3.3840 hc         1 KSH       0.068200
     55 H45          4.7020     0.6760    -3.0230 hc         1 KSH       0.077200
     56 H45A         4.0390    -0.9750    -3.1910 hc         1 KSH       0.077200
     57 H46          3.9390     0.8890    -0.8400 h1         1 KSH       0.072700
     58 H53          3.7780    -1.3320     0.3470 h1         1 KSH       0.037700
     59 H53A         5.1980    -1.2030    -0.7000 h1         1 KSH       0.037700
     60 HO55         4.0830    -3.1770    -1.0510 ho         1 KSH       0.415000
     61 H123        -3.1340    -1.9290     1.8930 hn         1 KSH       0.471800
@<TRIPOS>BOND
     1     1     2 1
     2     1     6 1
     3     1     9 1
     4     2     3 2
     5     2    26 1
     6     3     4 1
     7     4     5 2
     8     4    24 1
     9     5     6 1
    10     6     7 2
    11     7     8 1
    12     7    10 1
    13     8     9 2
    14     8    13 1
    15    10    11 2
    16    10    12 1
    17    13    14 1
    18    14    15 ar
    19    14    19 ar
    20    15    16 ar
    21    16    17 ar
    22    16    22 1
    23    17    18 ar
    24    18    19 ar
    25    18    20 1
    26    20    21 1
    27    22    23 1
    28    24    25 1
    29    26    27 1
    30    26    30 1
    31    27    28 1
    32    28    29 1
    33    29    30 1
    34    30    31 1
    35    31    32 1
    36     3    33 1
    37    12    34 1
    38    12    35 1
    39    13    36 1
    40    15    37 1
    41    17    38 1
    42    19    39 1
    43    21    40 1
    44    21    41 1
    45    21    42 1
    46    23    43 1
    47    23    44 1
    48    23    45 1
    49    24    46 1
    50    24    47 1
    51    25    48 1
    52    25    49 1
    53    25    50 1
    54    27    51 1
    55    27    52 1
    56    28    53 1
    57    28    54 1
    58    29    55 1
    59    29    56 1
    60    30    57 1
    61    31    58 1
    62    31    59 1
    63    32    60 1
    64    61    12 1
@<TRIPOS>SUBSTRUCTURE
     1 KSH         1 TEMP              0 ****  ****    0 ROOT
