@<TRIPOS>MOLECULE
KSK
   63    66     1     0     0
SMALL
bcc


@<TRIPOS>ATOM
      1 N1           0.0000     0.0000     0.0000 na         1 KSK       0.533200
      2 C2           1.3680     0.0000     0.0000 cc         1 KSK      -0.002700
      3 C3           2.0350     0.0000     1.2110 cd         1 KSK      -0.339300
      4 C4           1.2970    -0.0020     2.3900 cd         1 KSK       0.556600
      5 N5          -0.0210    -0.0030     2.3490 nc         1 KSK      -0.633000
      6 C6          -0.6750    -0.0020     1.1870 cc         1 KSK       0.339500
      7 C7          -2.0480    -0.0030     0.8740 cd         1 KSK      -0.616800
      8 C8          -2.1470    -0.0020    -0.5380 cd         1 KSK       0.620500
      9 N9          -0.9360     0.0060    -1.0390 nc         1 KSK      -0.811100
     10 C10         -3.1600    -0.0050     1.8240 c          1 KSK       0.425300
     11 O11         -3.6230     1.0490     2.2220 o          1 KSK      -0.392100
     12 N12         -3.6700    -1.1730     2.2610 nz         1 KSK       0.195600
     13 N13         -3.3310    -0.0020    -1.2700 nu         1 KSK      -0.212600
     14 C14         -3.2920     0.1190    -2.6620 ca         1 KSK       0.037600
     15 C15         -4.3290    -0.3880    -3.4330 ca         1 KSK      -0.214500
     16 C16         -4.2890    -0.2680    -4.8140 ca         1 KSK       0.225600
     17 C17         -3.2120     0.3600    -5.4250 ca         1 KSK      -0.317000
     18 C18         -2.1760     0.8670    -4.6550 ca         1 KSK       0.225600
     19 C19         -2.2180     0.7530    -3.2740 ca         1 KSK      -0.214500
     20 O20         -1.1220     1.4810    -5.2540 os         1 KSK      -0.311900
     21 C21         -1.1470     1.5680    -6.6810 c3         1 KSK       0.244200
     22 O22         -5.3030    -0.7650    -5.5690 os         1 KSK      -0.311900
     23 C23         -5.1960    -0.6050    -6.9860 c3         1 KSK       0.244200
     24 C24          2.0070    -0.0030     3.7190 cx         1 KSK      -0.227000
     25 C25          1.1460    -0.1240     4.9790 cx         1 KSK      -0.033900
     26 N26          2.0690     0.0020    -1.1850 nu         1 KSK      -0.427600
     27 C27          3.5340     0.0020    -1.1700 c3         1 KSK       0.159800
     28 C28          4.0580     0.0040    -2.6080 c3         1 KSK      -0.103800
     29 N29          3.4810    -1.1310    -3.3410 nz         1 KSK       0.052400
     30 C30          1.8060     1.2110     4.6290 cx         1 KSK      -0.033900
     31 C31          3.6590     1.3110    -3.2950 c3         1 KSK      -0.002100
     32 C32          5.5830    -0.1210    -2.5940 c3         1 KSK      -0.002100
     33 H3           3.1180     0.0010     1.2420 ha         1 KSK       0.154000
     34 HN12        -4.6620    -1.1730     2.1300 hn         1 KSK       0.246800
     35 HN1A        -3.4620    -1.2850     3.2340 hn         1 KSK       0.246800
     36 HN13        -4.2110    -0.0630    -0.7980 hn         1 KSK       0.276800
     37 H15         -5.1700    -0.8780    -2.9560 ha         1 KSK       0.134500
     38 H17         -3.1800     0.4510    -6.5040 ha         1 KSK       0.152000
     39 H19         -1.4080     1.1490    -2.6730 ha         1 KSK       0.134500
     40 H21         -0.2580     2.0820    -7.0270 h1         1 KSK       0.005367
     41 H21A        -1.1760     0.5710    -7.1030 h1         1 KSK       0.005367
     42 H21B        -2.0270     2.1190    -6.9930 h1         1 KSK       0.005367
     43 H23         -4.2990    -1.1000    -7.3380 h1         1 KSK       0.005367
     44 H23A        -6.0630    -1.0430    -7.4650 h1         1 KSK       0.005367
     45 H23B        -5.1440     0.4500    -7.2270 h1         1 KSK       0.005367
     46 H24          2.9830    -0.4670     3.7910 hc         1 KSK       0.081700
     47 H25          0.0770    -0.1750     4.8120 hc         1 KSK       0.056950
     48 H25A         1.5960    -0.6660     5.8030 hc         1 KSK       0.056950
     49 HN26         1.5770    -0.0160    -2.0570 hn         1 KSK       0.310800
     50 H27          3.8900     0.8870    -0.6550 h1         1 KSK       0.060200
     51 H27A         3.8900    -0.8830    -0.6570 h1         1 KSK       0.060200
     52 HN29         2.5600    -0.8930    -3.6520 hn         1 KSK       0.234800
     53 HN2A         4.0550    -1.3440    -4.1320 hn         1 KSK       0.234800
     54 H30          1.1400     1.9760     4.2470 hc         1 KSK       0.056950
     55 H30A         2.6590     1.4850     5.2380 hc         1 KSK       0.056950
     56 H31          4.2300     1.4290    -4.2080 hc         1 KSK       0.046867
     57 H31A         3.8630     2.1440    -2.6320 hc         1 KSK       0.046867
     58 H31B         2.6020     1.2870    -3.5310 hc         1 KSK       0.046867
     59 H32          5.9560    -0.1000    -3.6110 hc         1 KSK       0.046867
     60 H32A         6.0070     0.7050    -2.0360 hc         1 KSK       0.046867
     61 H32B         5.8640    -1.0560    -2.1250 hc         1 KSK       0.046867
     62 H123        -3.2620    -1.9290     1.7470 hn         1 KSK       0.246800
     63 H293         3.4390    -1.9300    -2.7390 hn         1 KSK       0.234800
@<TRIPOS>BOND
     1     1     2 1   
     2     1     6 1   
     3     1     9 1   
     4     2     3 2   
     5     2    26 1   
     6     3     4 1   
     7     3    33 1   
     8     4     5 2   
     9     4    24 1   
    10     5     6 1   
    11     6     7 2   
    12     7     8 1   
    13     7    10 1   
    14     8     9 2   
    15     8    13 1   
    16    10    11 2   
    17    10    12 1   
    18    12    34 1   
    19    12    35 1   
    20    12    62 1   
    21    13    14 1   
    22    13    36 1   
    23    14    15 ar  
    24    14    19 ar  
    25    15    16 ar  
    26    15    37 1   
    27    16    17 ar  
    28    16    22 1   
    29    17    18 ar  
    30    17    38 1   
    31    18    19 ar  
    32    18    20 1   
    33    19    39 1   
    34    20    21 1   
    35    21    40 1   
    36    21    41 1   
    37    21    42 1   
    38    22    23 1   
    39    23    43 1   
    40    23    44 1   
    41    23    45 1   
    42    24    25 1   
    43    24    30 1   
    44    24    46 1   
    45    25    30 1   
    46    25    47 1   
    47    25    48 1   
    48    26    27 1   
    49    26    49 1   
    50    27    28 1   
    51    27    50 1   
    52    27    51 1   
    53    28    29 1   
    54    28    31 1   
    55    28    32 1   
    56    29    52 1   
    57    29    53 1   
    58    29    63 1   
    59    30    54 1   
    60    30    55 1   
    61    31    56 1   
    62    31    57 1   
    63    31    58 1   
    64    32    59 1   
    65    32    60 1   
    66    32    61 1   
@<TRIPOS>SUBSTRUCTURE
     1 KSK         1 TEMP              0 ****  ****    0 ROOT
