@<TRIPOS>MOLECULE
molecule
   63    66     1     0     0
SMALL
bcc


@<TRIPOS>ATOM
      1 N1           0.0000     0.0000     0.0000 na         1 KSK       0.025200
      2 C2           1.3680     0.0000     0.0000 cc         1 KSK       0.333300
      3 C3           2.0350     0.0000     1.2110 cd         1 KSK      -0.384300
      4 C4           1.2970    -0.0020     2.3900 cd         1 KSK       0.611600
      5 N5          -0.0210    -0.0030     2.3490 nc         1 KSK      -0.759000
      6 C6          -0.6750    -0.0020     1.1870 cc         1 KSK       0.543500
      7 C7          -2.0480    -0.0030     0.8740 cd         1 KSK      -0.557800
      8 C8          -2.1470    -0.0020    -0.5380 cd         1 KSK       0.728500
      9 N9          -0.9360     0.0060    -1.0390 nc         1 KSK      -0.635100
     10 C10         -3.1600    -0.0050     1.8240 c          1 KSK       0.564300
     11 O11         -3.6230     1.0490     2.2220 o          1 KSK      -0.380100
     12 N12         -3.6700    -1.1730     2.2610 nz         1 KSK      -0.680400
     13 N13         -3.3310    -0.0020    -1.2700 nu         1 KSK      -0.704600
     14 C14         -3.2920     0.1190    -2.6620 ca         1 KSK       0.202600
     15 C15         -4.3290    -0.3880    -3.4330 ca         1 KSK      -0.232500
     16 C16         -4.2890    -0.2680    -4.8140 ca         1 KSK       0.210600
     17 C17         -3.2120     0.3600    -5.4250 ca         1 KSK      -0.320000
     18 C18         -2.1760     0.8670    -4.6550 ca         1 KSK       0.210600
     19 C19         -2.2180     0.7530    -3.2740 ca         1 KSK      -0.232500
     20 O20         -1.1220     1.4810    -5.2540 os         1 KSK      -0.328400
     21 C21         -1.1470     1.5680    -6.6810 c3         1 KSK       0.124700
     22 O22         -5.3030    -0.7650    -5.5690 os         1 KSK      -0.328400
     23 C23         -5.1960    -0.6050    -6.9860 c3         1 KSK       0.124700
     24 C24          2.0070    -0.0030     3.7190 cx         1 KSK      -0.249000
     25 C25          1.1460    -0.1240     4.9790 cx         1 KSK      -0.092400
     26 N26          2.0690     0.0020    -1.1850 nu         1 KSK      -0.828600
     27 C27          3.5340     0.0020    -1.1700 c3         1 KSK       0.222800
     28 C28          4.0580     0.0040    -2.6080 c3         1 KSK       0.092200
     29 N29          3.4810    -1.1310    -3.3410 nz         1 KSK      -0.813600
     30 C30          1.8060     1.2110     4.6290 cx         1 KSK      -0.092400
     31 C31          3.6590     1.3110    -3.2950 c3         1 KSK      -0.114600
     32 C32          5.5830    -0.1210    -2.5940 c3         1 KSK      -0.114600
     33 H3           3.1180     0.0010     1.2420 ha         1 KSK       0.174000
     34 HN12        -4.6620    -1.1730     2.1300 hn         1 KSK       0.477800
     35 HN1A        -3.4620    -1.2850     3.2340 hn         1 KSK       0.477800
     36 HN13        -4.2110    -0.0630    -0.7980 hn         1 KSK       0.458800
     37 H15         -5.1700    -0.8780    -2.9560 ha         1 KSK       0.154000
     38 H17         -3.1800     0.4510    -6.5040 ha         1 KSK       0.157000
     39 H19         -1.4080     1.1490    -2.6730 ha         1 KSK       0.154000
     40 H21         -0.2580     2.0820    -7.0270 h1         1 KSK       0.051867
     41 H21A        -1.1760     0.5710    -7.1030 h1         1 KSK       0.051867
     42 H21B        -2.0270     2.1190    -6.9930 h1         1 KSK       0.051867
     43 H23         -4.2990    -1.1000    -7.3380 h1         1 KSK       0.051867
     44 H23A        -6.0630    -1.0430    -7.4650 h1         1 KSK       0.051867
     45 H23B        -5.1440     0.4500    -7.2270 h1         1 KSK       0.051867
     46 H24          2.9830    -0.4670     3.7910 hc         1 KSK       0.111700
     47 H25          0.0770    -0.1750     4.8120 hc         1 KSK       0.093700
     48 H25A         1.5960    -0.6660     5.8030 hc         1 KSK       0.093700
     49 HN26         1.5770    -0.0160    -2.0570 hn         1 KSK       0.457800
     50 H27          3.8900     0.8870    -0.6550 h1         1 KSK       0.090200
     51 H27A         3.8900    -0.8830    -0.6570 h1         1 KSK       0.090200
     52 HN29         2.5600    -0.8930    -3.6520 hn         1 KSK       0.459467
     53 HN2A         4.0550    -1.3440    -4.1320 hn         1 KSK       0.459467
     54 H30          1.1400     1.9760     4.2470 hc         1 KSK       0.093700
     55 H30A         2.6590     1.4850     5.2380 hc         1 KSK       0.093700
     56 H31          4.2300     1.4290    -4.2080 hc         1 KSK       0.084867
     57 H31A         3.8630     2.1440    -2.6320 hc         1 KSK       0.084867
     58 H31B         2.6020     1.2870    -3.5310 hc         1 KSK       0.084867
     59 H32          5.9560    -0.1000    -3.6110 hc         1 KSK       0.084867
     60 H32A         6.0070     0.7050    -2.0360 hc         1 KSK       0.084867
     61 H32B         5.8640    -1.0560    -2.1250 hc         1 KSK       0.084867
     62 H123        -3.2620    -1.9290     1.7470 hn         1 KSK       0.477800
     63 H293         3.4390    -1.9300    -2.7390 hn         1 KSK       0.459467
@<TRIPOS>BOND
     1     1     2 1
     2     1     6 1
     3     1     9 1
     4     2     3 2
     5     2    26 1
     6     3     4 1
     7     4     5 2
     8     4    24 1
     9     5     6 1
    10     6     7 2
    11     7     8 1
    12     7    10 1
    13     8     9 2
    14     8    13 1
    15    10    11 2
    16    10    12 1
    17    13    14 1
    18    14    15 ar
    19    14    19 ar
    20    15    16 ar
    21    16    17 ar
    22    16    22 1
    23    17    18 ar
    24    18    19 ar
    25    18    20 1
    26    20    21 1
    27    22    23 1
    28    24    25 1
    29    24    30 1
    30    25    30 1
    31    26    27 1
    32    27    28 1
    33    28    29 1
    34    28    31 1
    35    28    32 1
    36     3    33 1
    37    12    34 1
    38    12    35 1
    39    13    36 1
    40    15    37 1
    41    17    38 1
    42    19    39 1
    43    21    40 1
    44    21    41 1
    45    21    42 1
    46    23    43 1
    47    23    44 1
    48    23    45 1
    49    24    46 1
    50    25    47 1
    51    25    48 1
    52    26    49 1
    53    27    50 1
    54    27    51 1
    55    29    52 1
    56    29    53 1
    57    30    54 1
    58    30    55 1
    59    31    56 1
    60    31    57 1
    61    31    58 1
    62    32    59 1
    63    32    60 1
    64    32    61 1
    65    62    12 1
    66    63    29 1
@<TRIPOS>SUBSTRUCTURE
     1 KSK         1 TEMP              0 ****  ****    0 ROOT
