@<TRIPOS>MOLECULE
KSL
   42    45     1     0     0
SMALL
bcc


@<TRIPOS>ATOM
      1 C8           0.0000     0.0000     0.0000 c3         1 KSL       0.055700
      2 C7           1.5070     0.0000     0.0000 ca         1 KSL      -0.061300
      3 C5           2.1980     0.0000     1.1960 ca         1 KSL      -0.107000
      4 C4           3.5810     0.0000     1.1970 ca         1 KSL      -0.080000
      5 C3           4.2770    -0.0000     0.0010 ca         1 KSL      -0.107000
      6 C6           2.2030    -0.0070    -1.2030 ca         1 KSL      -0.025400
      7 C2           3.5920    -0.0010    -1.1980 ca         1 KSL      -0.061300
      8 C1           4.3500     0.0010    -2.5000 c3         1 KSL       0.055700
      9 N9           1.5060    -0.0130    -2.4140 nu         1 KSL      -0.288300
     10 C10          1.4900    -1.1540    -3.1970 cc         1 KSL       0.592200
     11 C18          0.7040    -1.1990    -4.3700 cc         1 KSL      -0.491600
     12 C17         -0.1390    -0.3130    -5.0040 cd         1 KSL       0.009600
     13 N16         -0.6100    -0.9210    -6.0950 nd         1 KSL      -0.486300
     14 C15         -0.1140    -2.1320    -6.1790 cc         1 KSL       0.122700
     15 N14          0.7040    -2.3510    -5.1380 na         1 KSL       0.614800
     16 C13          1.4790    -3.4220    -4.7260 cc         1 KSL      -0.422600
     17 C12          2.2160    -3.3200    -3.5880 cd         1 KSL       0.498200
     18 N11          2.2140    -2.2040    -2.8540 nd         1 KSL      -0.717000
     19 C19          1.5050    -4.6690    -5.5170 ca         1 KSL      -0.023000
     20 C24          0.9990    -5.8540    -4.9780 ca         1 KSL      -0.088500
     21 C23          1.0270    -7.0140    -5.7230 ca         1 KSL      -0.098500
     22 C22          1.5530    -7.0060    -7.0030 ca         1 KSL      -0.094000
     23 C21          2.0560    -5.8350    -7.5440 ca         1 KSL      -0.098500
     24 C20          2.0300    -4.6660    -6.8120 ca         1 KSL      -0.088500
     25 H8          -0.3610    -0.9730    -0.3120 hc         1 KSL       0.011700
     26 H8A         -0.3610     0.7560    -0.6870 hc         1 KSL       0.011700
     27 H8B         -0.3610     0.2170     0.9980 hc         1 KSL       0.011700
     28 H5           1.6570     0.0000     2.1340 ha         1 KSL       0.108000
     29 H4           4.1210     0.0010     2.1360 ha         1 KSL       0.102000
     30 H3           5.3600     0.0030     0.0050 ha         1 KSL       0.108000
     31 H1           3.7200     0.4010    -3.2850 hc         1 KSL       0.011700
     32 H1A          5.2380     0.6140    -2.4010 hc         1 KSL       0.011700
     33 H1B          4.6390    -1.0130    -2.7510 hc         1 KSL       0.011700
     34 HN9          1.0480     0.8190    -2.7310 hn         1 KSL       0.292800
     35 H17         -0.3750     0.6920    -4.6780 h4         1 KSL       0.139000
     36 H15         -0.3300    -2.8430    -6.9670 h5         1 KSL       0.043800
     37 H12          2.8230    -4.1600    -3.2720 h4         1 KSL      -0.008900
     38 H24          0.5860    -5.8620    -3.9760 ha         1 KSL       0.110000
     39 H23          0.6350    -7.9340    -5.3060 ha         1 KSL       0.105000
     40 H22          1.5740    -7.9200    -7.5830 ha         1 KSL       0.104000
     41 H21          2.4650    -5.8360    -8.5470 ha         1 KSL       0.105000
     42 H20          2.4240    -3.7500    -7.2370 ha         1 KSL       0.110000
@<TRIPOS>BOND
     1     1     2 1   
     2     1    25 1   
     3     1    26 1   
     4     1    27 1   
     5     2     3 ar  
     6     2     6 ar  
     7     3     4 ar  
     8     3    28 1   
     9     4     5 ar  
    10     4    29 1   
    11     5     7 ar  
    12     5    30 1   
    13     6     7 ar  
    14     6     9 1   
    15     7     8 1   
    16     8    31 1   
    17     8    32 1   
    18     8    33 1   
    19     9    10 1   
    20     9    34 1   
    21    10    11 1   
    22    10    18 2   
    23    11    12 2   
    24    11    15 1   
    25    12    13 1   
    26    12    35 1   
    27    13    14 2   
    28    14    15 1   
    29    14    36 1   
    30    15    16 1   
    31    16    17 2   
    32    16    19 1   
    33    17    18 1   
    34    17    37 1   
    35    19    20 ar  
    36    19    24 ar  
    37    20    21 ar  
    38    20    38 1   
    39    21    22 ar  
    40    21    39 1   
    41    22    23 ar  
    42    22    40 1   
    43    23    24 ar  
    44    23    41 1   
    45    24    42 1   
@<TRIPOS>SUBSTRUCTURE
     1 KSL         1 TEMP              0 ****  ****    0 ROOT
