@<TRIPOS>MOLECULE
molecule
   52    56     1     0     0
SMALL
bcc


@<TRIPOS>ATOM
      1 Cl24         0.0000     0.0000     0.0000 cl         1 KSM      -0.097400
      2 C12          1.7360     0.0000     0.0000 ca         1 KSM       0.040400
      3 C13          2.4280     0.0000     1.1960 ca         1 KSM      -0.127000
      4 C14          3.8110     0.0000     1.1960 ca         1 KSM      -0.112000
      5 C15          4.5060     0.0000     0.0010 ca         1 KSM      -0.127000
      6 C16          3.8210     0.0000    -1.1990 ca         1 KSM      -0.059300
      7 C20          4.5790     0.0020    -2.5010 c3         1 KSM      -0.044800
      8 C11          2.4320    -0.0050    -1.2030 ca         1 KSM       0.150600
      9 N10          1.7360    -0.0120    -2.4160 nu         1 KSM      -0.776300
     10 C9           1.3920    -1.2130    -3.0100 cc         1 KSM       0.751200
     11 C4           0.6970    -1.2200    -4.2960 cc         1 KSM      -0.266600
     12 C5           0.2520    -0.2450    -5.1530 cd         1 KSM       0.023600
     13 N1          -0.3220    -0.8550    -6.1920 nd         1 KSM      -0.583300
     14 N8           1.6950    -2.3490    -2.4230 nd         1 KSM      -0.770000
     15 C7           1.3700    -3.5460    -2.9820 ca         1 KSM       0.422600
     16 C27          1.7100    -4.7350    -2.3240 ca         1 KSM      -0.140300
     17 C28          1.3870    -5.9490    -2.8840 ca         1 KSM      -0.171000
     18 C29          0.7200    -6.0060    -4.1040 ca         1 KSM       0.108600
     19 C26          0.3770    -4.8370    -4.7670 ca         1 KSM      -0.155000
     20 C6           0.6970    -3.6070    -4.2140 ca         1 KSM      -0.097600
     21 N3           0.3610    -2.4310    -4.8750 na         1 KSM      -0.023200
     22 C2          -0.2610    -2.1530    -6.0340 cc         1 KSM       0.377700
     23 N30          0.3950    -7.2450    -4.6650 nh         1 KSM      -0.597000
     24 C35          0.9510    -7.3720    -6.0190 c3         1 KSM       0.168800
     25 C34          0.5080    -8.7060    -6.6260 c3         1 KSM       0.155800
     26 N33          0.9650    -9.8080    -5.7660 n7         1 KSM      -0.820200
     27 C32          0.4090    -9.6800    -4.4120 c3         1 KSM       0.161500
     28 C43          0.9190   -10.8310    -3.5410 c3         1 KSM      -0.090100
     29 C31          0.8520    -8.3470    -3.8050 c3         1 KSM       0.165800
     30 H13          1.8870     0.0000     2.1350 ha         1 KSM       0.146000
     31 H14          4.3510     0.0000     2.1350 ha         1 KSM       0.137000
     32 H15          5.5900     0.0010     0.0050 ha         1 KSM       0.137000
     33 H20          5.5970     0.3290    -2.3260 hc         1 KSM       0.048700
     34 H20A         4.0980     0.6770    -3.1980 hc         1 KSM       0.048700
     35 H20B         4.5880    -0.9990    -2.9150 hc         1 KSM       0.048700
     36 HN10         1.4540     0.8520    -2.8350 hn         1 KSM       0.461800
     37 H5           0.3490     0.8250    -5.0110 h4         1 KSM       0.180000
     38 H27          2.2300    -4.6980    -1.3740 ha         1 KSM       0.155000
     39 H28          1.6520    -6.8650    -2.3710 ha         1 KSM       0.144000
     40 H26         -0.1420    -4.8850    -5.7160 ha         1 KSM       0.141000
     41 H2          -0.6500    -2.8880    -6.7280 h5         1 KSM       0.079800
     42 H35          2.0330    -7.3410    -5.9690 h1         1 KSM       0.049200
     43 H35A         0.5890    -6.5580    -6.6350 h1         1 KSM       0.049200
     44 H34         -0.5720    -8.7280    -6.6960 h1         1 KSM       0.042200
     45 H34A         0.9430    -8.8150    -7.6120 h1         1 KSM       0.042200
     46 HN33         0.6790   -10.6810    -6.1630 hn         1 KSM       0.357800
     47 H32         -0.6720    -9.7100    -4.4630 h1         1 KSM       0.035700
     48 H43          0.5720   -10.6950    -2.5240 hc         1 KSM       0.042033
     49 H43A         0.5420   -11.7700    -3.9280 hc         1 KSM       0.042033
     50 H43B         2.0020   -10.8430    -3.5560 hc         1 KSM       0.042033
     51 H31          1.9330    -8.3240    -3.7350 h1         1 KSM       0.051700
     52 H31A         0.4180    -8.2380    -2.8190 h1         1 KSM       0.051700
@<TRIPOS>BOND
     1     1     2 1
     2     2     3 ar
     3     2     8 ar
     4     3     4 ar
     5     4     5 ar
     6     5     6 ar
     7     6     7 1
     8     6     8 ar
     9     8     9 1
    10     9    10 1
    11    10    11 1
    12    10    14 2
    13    11    12 2
    14    11    21 1
    15    12    13 1
    16    13    22 2
    17    14    15 1
    18    15    16 ar
    19    15    20 ar
    20    16    17 ar
    21    17    18 ar
    22    18    19 ar
    23    18    23 1
    24    19    20 ar
    25    20    21 1
    26    21    22 1
    27    23    24 1
    28    23    29 1
    29    24    25 1
    30    25    26 1
    31    26    27 1
    32    27    28 1
    33    27    29 1
    34     3    30 1
    35     4    31 1
    36     5    32 1
    37     7    33 1
    38     7    34 1
    39     7    35 1
    40     9    36 1
    41    12    37 1
    42    16    38 1
    43    17    39 1
    44    19    40 1
    45    22    41 1
    46    24    42 1
    47    24    43 1
    48    25    44 1
    49    25    45 1
    50    26    46 1
    51    27    47 1
    52    28    48 1
    53    28    49 1
    54    28    50 1
    55    29    51 1
    56    29    52 1
@<TRIPOS>SUBSTRUCTURE
     1 KSM         1 TEMP              0 ****  ****    0 ROOT
