@<TRIPOS>MOLECULE
molecule
   35    38     1     0     0
SMALL
bcc


@<TRIPOS>ATOM
      1 C1           0.0000     0.0000     0.0000 ca         1 KSR       0.271900
      2 N2           1.3190     0.0000     0.0000 nb         1 KSR      -0.624000
      3 C3           1.9790     0.0000     1.1580 ca         1 KSR       0.317800
      4 C4           1.2600     0.0000     2.3740 ca         1 KSR       0.337500
      5 N5          -0.0650     0.0010     2.3510 nb         1 KSR      -0.673000
      6 C6          -0.7030     0.0000     1.1940 ca         1 KSR       0.310900
      7 C9           3.3540    -0.0000     1.4950 cc         1 KSR      -0.307800
      8 C10          3.4480     0.0000     2.8500 cd         1 KSR       0.059900
      9 N11          2.1850     0.0000     3.3950 na         1 KSR      -0.266100
     10 C14          4.7090    -0.0000     3.6180 cd         1 KSR      -0.133200
     11 C15          4.9900     0.7590     4.8490 ca         1 KSR      -0.052800
     12 C16          6.3100     0.4400     5.2090 ca         1 KSR      -0.070200
     13 N17          6.7920    -0.4470     4.2660 na         1 KSR      -0.066400
     14 C18          5.8340    -0.7060     3.3320 cc         1 KSR      -0.048100
     15 C20          4.2470     1.6430     5.6290 ca         1 KSR      -0.127000
     16 C21          4.8170     2.2020     6.7570 ca         1 KSR       0.122100
     17 C22          6.1250     1.8860     7.1110 ca         1 KSR      -0.193000
     18 C23          6.8660     1.0120     6.3480 ca         1 KSR      -0.098000
     19 C27          8.1360    -1.0290     4.2740 c3         1 KSR       0.039600
     20 O31          4.0970     3.0660     7.5230 os         1 KSR      -0.328900
     21 C32          4.7470     3.6080     8.6740 c3         1 KSR       0.129700
     22 H1          -0.5380    -0.0000    -0.9400 h4         1 KSR       0.028100
     23 H6          -1.7860     0.0000     1.1790 h4         1 KSR       0.029100
     24 H9           4.1830    -0.0000     0.7980 ha         1 KSR       0.164000
     25 HN11         1.9720     0.0000     4.3730 hn         1 KSR       0.312700
     26 H18          5.9530    -1.3750     2.4880 h4         1 KSR       0.176000
     27 H20          3.2290     1.8890     5.3530 ha         1 KSR       0.146000
     28 H22          6.5630     2.3300     7.9970 ha         1 KSR       0.138000
     29 H23          7.8830     0.7730     6.6330 ha         1 KSR       0.129000
     30 H27          8.2490    -1.6860     3.4200 h1         1 KSR       0.051700
     31 H27A         8.8730    -0.2370     4.2210 h1         1 KSR       0.051700
     32 H27B         8.2790    -1.5960     5.1860 h1         1 KSR       0.051700
     33 H32          5.0360     2.8030     9.3380 h1         1 KSR       0.040367
     34 H32A         4.0670     4.2760     9.1910 h1         1 KSR       0.040367
     35 H32B         5.6280     4.1580     8.3660 h1         1 KSR       0.040367
@<TRIPOS>BOND
     1     1     2 ar
     2     1     6 ar
     3     2     3 ar
     4     3     4 ar
     5     3     7 1
     6     4     5 ar
     7     4     9 1
     8     5     6 ar
     9     7     8 2
    10     8     9 1
    11     8    10 1
    12    10    11 1
    13    10    14 2
    14    11    12 ar
    15    11    15 ar
    16    12    13 1
    17    12    18 ar
    18    13    14 1
    19    13    19 1
    20    15    16 ar
    21    16    17 ar
    22    16    20 1
    23    17    18 ar
    24    20    21 1
    25     1    22 1
    26     6    23 1
    27     7    24 1
    28     9    25 1
    29    14    26 1
    30    15    27 1
    31    17    28 1
    32    18    29 1
    33    19    30 1
    34    19    31 1
    35    19    32 1
    36    21    33 1
    37    21    34 1
    38    21    35 1
@<TRIPOS>SUBSTRUCTURE
     1 KSR         1 TEMP              0 ****  ****    0 ROOT
