@<TRIPOS>MOLECULE
KSR
   35    38     1     0     0
SMALL
bcc


@<TRIPOS>ATOM
      1 C1         -0.0220   -0.1380    0.0400 ca        1 KSR      0.257900
      2 N2          1.3050   -0.2830   -0.0520 nb        1 KSR     -0.594000
      3 C3          1.9810   -0.1280    1.1120 ca        1 KSR      0.308800
      4 C4          1.2750    0.1780    2.3700 ca        1 KSR      0.310500
      5 N5         -0.0830    0.3230    2.4410 nb        1 KSR     -0.635000
      6 C6         -0.7030    0.1600    1.2660 ca        1 KSR      0.290900
      7 C9          3.3820   -0.1990    1.4460 cc        1 KSR     -0.299800
      8 C10         3.4970    0.0510    2.8210 cd        1 KSR      0.053900
      9 N11         2.2290    0.2810    3.3840 na        1 KSR     -0.273100
     10 C14         4.7000    0.0610    3.5990 cd        1 KSR     -0.124200
     11 C15         4.9690    0.7580    4.8420 ca        1 KSR     -0.040800
     12 C16         6.3290    0.4210    5.2080 ca        1 KSR     -0.077200
     13 N17         6.8470   -0.4430    4.2260 na        1 KSR     -0.069400
     14 C18         5.8660   -0.6410    3.2600 cc        1 KSR     -0.051100
     15 C20         4.2350    1.6190    5.6520 ca        1 KSR     -0.129000
     16 C21         4.8410    2.1150    6.8140 ca        1 KSR      0.109100
     17 C22         6.1600    1.7740    7.1750 ca        1 KSR     -0.181000
     18 C23         6.9140    0.9300    6.3740 ca        1 KSR     -0.101000
     19 C27         8.1800   -0.9420    4.1810 c3        1 KSR      0.028600
     20 O31         4.0320    2.9530    7.5630 os        1 KSR     -0.328900
     21 C32         4.6190    3.5270    8.7230 c3        1 KSR      0.114700
     22 H1         -0.5960   -0.2590   -0.8940 h4        1 KSR      0.029100
     23 H6         -1.8010    0.2690    1.2800 h4        1 KSR      0.029100
     24 H9          4.1940   -0.3970    0.7530 ha        1 KSR      0.166000
     25 HN11        2.0470    0.4550    4.3380 hn        1 KSR      0.315700
     26 H18         6.0480   -1.2790    2.3910 h4        1 KSR      0.176000
     27 H20         3.2140    1.9330    5.4010 ha        1 KSR      0.150000
     28 H22         6.6070    2.1790    8.0940 ha        1 KSR      0.139000
     29 H23         7.9450    0.6690    6.6490 ha        1 KSR      0.136000
     30 H27         8.4950   -1.2740    5.2070 h1        1 KSR      0.053367
     31 H27A        8.2330   -1.8150    3.4770 h1        1 KSR      0.053367
     32 H27B        8.8890   -0.1430    3.8270 h1        1 KSR      0.053367
     33 H32         3.8020    4.1730    9.1350 h1        1 KSR      0.043700
     34 H32A        5.5100    4.1450    8.4540 h1        1 KSR      0.043700
     35 H32B        4.8990    2.7340    9.4580 h1        1 KSR      0.043700
@<TRIPOS>BOND
     1    1    2 ar  
     2    1    6 ar  
     3    1   22 1   
     4    2    3 ar  
     5    3    4 ar  
     6    3    7 1   
     7    4    5 ar  
     8    4    9 1   
     9    5    6 ar  
    10    6   23 1   
    11    7    8 2   
    12    7   24 1   
    13    8    9 1   
    14    8   10 1   
    15    9   25 1   
    16   10   11 1   
    17   10   14 2   
    18   11   12 ar  
    19   11   15 ar  
    20   12   13 1   
    21   12   18 ar  
    22   13   14 1   
    23   13   19 1   
    24   14   26 1   
    25   15   16 ar  
    26   15   27 1   
    27   16   17 ar  
    28   16   20 1   
    29   17   18 ar  
    30   17   28 1   
    31   18   29 1   
    32   19   30 1   
    33   19   31 1   
    34   19   32 1   
    35   20   21 1   
    36   21   33 1   
    37   21   34 1   
    38   21   35 1   
@<TRIPOS>SUBSTRUCTURE
     1 KSR         1 TEMP              0 ****  ****    0 ROOT
