@<TRIPOS>MOLECULE
KSS
   39    41     1     0     0
SMALL
bcc


@<TRIPOS>ATOM
      1 C1          0.0770    0.5240   -0.0470 cc        1 KSS     -0.017300
      2 N2          1.4910    0.2430   -0.0520 na        1 KSS     -0.141100
      3 C3          1.9310    0.3650    1.2640 cc        1 KSS     -0.207100
      4 C4          0.7880    0.7110    2.0180 cd        1 KSS      0.015600
      5 N5         -0.3410    0.8080    1.2180 nd        1 KSS     -0.278600
      6 C6         -0.6170    0.4620   -1.2980 cc        1 KSS     -0.198300
      7 C7          0.1050    0.1380   -2.4350 cd        1 KSS      0.463800
      8 N8          1.4700   -0.1200   -2.4110 nd        1 KSS     -0.707000
      9 C9          2.1250   -0.0690   -1.2550 cc        1 KSS      0.621800
     10 S12         3.8190   -0.3920   -1.1620 ss        1 KSS     -0.257400
     11 C13         4.3000   -0.8080   -2.8170 c3        1 KSS     -0.013300
     12 C14         5.7660   -1.1210   -2.7410 c3        1 KSS     -0.097100
     13 C21        -0.5850    0.0530   -3.7340 ca        1 KSS     -0.143500
     14 C22        -1.8490   -0.5350   -3.8040 ca        1 KSS     -0.110000
     15 C23        -2.5300   -0.6110   -5.0200 ca        1 KSS     -0.185000
     16 C24        -1.9470   -0.0990   -6.1790 ca        1 KSS      0.114100
     17 C25        -0.6580    0.4970   -6.1120 ca        1 KSS      0.094100
     18 C26         0.0150    0.5670   -4.8940 ca        1 KSS     -0.144000
     19 O30        -2.5250   -0.1180   -7.4310 os        1 KSS     -0.301900
     20 O31        -0.1680    0.9740   -7.3130 os        1 KSS     -0.303900
     21 C32        -3.8190   -0.7080   -7.5100 c3        1 KSS      0.109700
     22 C36         1.1170    1.5830   -7.2630 c3        1 KSS      0.109700
     23 H3          2.9680    0.2050    1.5530 h4        1 KSS      0.192000
     24 H4          0.7350    0.8920    3.0920 h4        1 KSS      0.184000
     25 H6         -1.6930    0.6790   -1.3190 ha        1 KSS      0.173000
     26 H13         4.1040    0.0460   -3.5100 h1        1 KSS      0.083700
     27 H13A        3.7180   -1.6860   -3.1890 h1        1 KSS      0.083700
     28 H14         5.9580   -1.9840   -2.0580 hc        1 KSS      0.052367
     29 H14A        6.3470   -0.2390   -2.3730 hc        1 KSS      0.052367
     30 H14B        6.1450   -1.3890   -3.7590 hc        1 KSS      0.052367
     31 H22        -2.3160   -0.9500   -2.8980 ha        1 KSS      0.140000
     32 H23        -3.5230   -1.0800   -5.0530 ha        1 KSS      0.142000
     33 H26         1.0130    1.0240   -4.8350 ha        1 KSS      0.152000
     34 H32        -4.0800   -0.6080   -8.5940 h1        1 KSS      0.045033
     35 H32A       -3.7820   -1.7830   -7.2110 h1        1 KSS      0.045033
     36 H32B       -4.5480   -0.1480   -6.8750 h1        1 KSS      0.045033
     37 H36         1.8900    0.8500   -6.9260 h1        1 KSS      0.044367
     38 H36A        1.2980    1.8880   -8.3240 h1        1 KSS      0.044367
     39 H36B        1.1070    2.4760   -6.5920 h1        1 KSS      0.044367
@<TRIPOS>BOND
     1    1    2 1   
     2    1    5 2   
     3    1    6 1   
     4    2    3 1   
     5    2    9 1   
     6    3    4 2   
     7    3   23 1   
     8    4    5 1   
     9    4   24 1   
    10    6    7 2   
    11    6   25 1   
    12    7    8 1   
    13    7   13 1   
    14    8    9 2   
    15    9   10 1   
    16   10   11 1   
    17   11   12 1   
    18   11   26 1   
    19   11   27 1   
    20   12   28 1   
    21   12   29 1   
    22   12   30 1   
    23   13   14 ar  
    24   13   18 ar  
    25   14   15 ar  
    26   14   31 1   
    27   15   16 ar  
    28   15   32 1   
    29   16   17 ar  
    30   16   19 1   
    31   17   18 ar  
    32   17   20 1   
    33   18   33 1   
    34   19   21 1   
    35   20   22 1   
    36   21   34 1   
    37   21   35 1   
    38   21   36 1   
    39   22   37 1   
    40   22   38 1   
    41   22   39 1   
@<TRIPOS>SUBSTRUCTURE
     1 KSS         1 TEMP              0 ****  ****    0 ROOT
