@<TRIPOS>MOLECULE
molecule
   39    41     1     0     0
SMALL
bcc


@<TRIPOS>ATOM
      1 C1           0.0000     0.0000     0.0000 cc         1 KSS      -0.000300
      2 N2           1.3750     0.0000     0.0000 na         1 KSS      -0.106100
      3 C3           1.7720     0.0000     1.3130 cc         1 KSS      -0.241100
      4 C4           0.6530     0.0000     2.0670 cd         1 KSS       0.046600
      5 N5          -0.4110    -0.0010     1.2560 nd         1 KSS      -0.313600
      6 C6          -0.6730     0.0050    -1.2370 cc         1 KSS      -0.208300
      7 C7           0.0770     0.0100    -2.3970 cd         1 KSS       0.481800
      8 N8           1.4190     0.0100    -2.3340 nd         1 KSS      -0.729000
      9 C9           2.0560     0.0010    -1.1850 cc         1 KSS       0.641800
     10 S12          3.8180     0.0010    -1.1720 ss         1 KSS      -0.283400
     11 C13          4.1450     0.0020    -2.9520 c3         1 KSS       0.003700
     12 C14          5.6570     0.0030    -3.1930 c3         1 KSS      -0.086100
     13 C21         -0.5990     0.0160    -3.7140 ca         1 KSS      -0.144500
     14 C22         -1.9920     0.0170    -3.7850 ca         1 KSS      -0.108000
     15 C23         -2.6210     0.0220    -5.0130 ca         1 KSS      -0.194000
     16 C24         -1.8720     0.0270    -6.1790 ca         1 KSS       0.129100
     17 C25         -0.4800     0.0260    -6.1160 ca         1 KSS       0.108100
     18 C26          0.1560     0.0270    -4.8890 ca         1 KSS      -0.155000
     19 O30         -2.4960     0.0300    -7.3870 os         1 KSS      -0.310900
     20 O31          0.2530     0.0300    -7.2620 os         1 KSS      -0.312900
     21 C32         -3.9250     0.0300    -7.3790 c3         1 KSS       0.126700
     22 C36          1.6750     0.0300    -7.1210 c3         1 KSS       0.126700
     23 H3           2.7930     0.0000     1.6770 h4         1 KSS       0.187000
     24 H4           0.6220     0.0010     3.1490 h4         1 KSS       0.185000
     25 H6          -1.7560     0.0050    -1.2780 ha         1 KSS       0.168000
     26 H13          3.7080     0.8860    -3.3990 h1         1 KSS       0.078200
     27 H13A         3.7090    -0.8830    -3.4000 h1         1 KSS       0.078200
     28 H14          6.0950    -0.8780    -2.7400 hc         1 KSS       0.048700
     29 H14A         6.0920     0.8910    -2.7520 hc         1 KSS       0.048700
     30 H14B         5.8520    -0.0040    -4.2590 hc         1 KSS       0.048700
     31 H22         -2.5800     0.0130    -2.8750 ha         1 KSS       0.138000
     32 H23         -3.7030     0.0220    -5.0650 ha         1 KSS       0.144000
     33 H26          1.2380     0.0270    -4.8380 ha         1 KSS       0.157000
     34 H32         -4.2910     0.0330    -8.3980 h1         1 KSS       0.042033
     35 H32A        -4.2840     0.9120    -6.8630 h1         1 KSS       0.042033
     36 H32B        -4.2830    -0.8570    -6.8700 h1         1 KSS       0.042033
     37 H36          1.9850     0.9150    -6.5800 h1         1 KSS       0.040700
     38 H36A         1.9840    -0.8540    -6.5760 h1         1 KSS       0.040700
     39 H36B         2.1350     0.0270    -8.1020 h1         1 KSS       0.040700
@<TRIPOS>BOND
     1     1     2 1
     2     1     5 2
     3     1     6 1
     4     2     3 1
     5     2     9 1
     6     3     4 2
     7     4     5 1
     8     6     7 2
     9     7     8 1
    10     7    13 1
    11     8     9 2
    12     9    10 1
    13    10    11 1
    14    11    12 1
    15    13    14 ar
    16    13    18 ar
    17    14    15 ar
    18    15    16 ar
    19    16    17 ar
    20    16    19 1
    21    17    18 ar
    22    17    20 1
    23    19    21 1
    24    20    22 1
    25     3    23 1
    26     4    24 1
    27     6    25 1
    28    11    26 1
    29    11    27 1
    30    12    28 1
    31    12    29 1
    32    12    30 1
    33    14    31 1
    34    15    32 1
    35    18    33 1
    36    21    34 1
    37    21    35 1
    38    21    36 1
    39    22    37 1
    40    22    38 1
    41    22    39 1
@<TRIPOS>SUBSTRUCTURE
     1 KSS         1 TEMP              0 ****  ****    0 ROOT
