@<TRIPOS>MOLECULE
molecule
   22    22     1     0     0
SMALL
bcc


@<TRIPOS>ATOM
      1 C8           0.0000     0.0000     0.0000 c          1 KTA       0.889600
      2 O1           1.3580     0.0000     0.0000 o          1 KTA      -0.852800
      3 O2          -0.6780     0.0000     1.0150 o          1 KTA      -0.852800
      4 C7          -0.5070    -0.0010    -1.4160 c3         1 KTA      -0.171400
      5 C1          -1.8580    -0.7030    -1.5310 c3         1 KTA      -0.054700
      6 C2          -1.7550    -2.1500    -1.0390 c3         1 KTA      -0.165400
      7 C3          -3.0630    -2.8790    -1.2520 c          1 KTA       0.569100
      8 C4          -3.6660    -2.7940    -2.6350 c3         1 KTA      -0.180400
      9 C5          -3.7310    -1.3450    -3.0990 c3         1 KTA      -0.073400
     10 C6          -2.3760    -0.6490    -2.9760 c3         1 KTA      -0.085400
     11 O3          -3.5540    -3.5900    -0.3760 o          1 KTA      -0.558100
     12 H6C1        -2.4820     0.3870    -3.2760 hc         1 KTA       0.034700
     13 H6C2        -1.6640    -1.1420    -3.6270 hc         1 KTA       0.034700
     14 H5C1        -4.4550    -0.8140    -2.4930 hc         1 KTA       0.032200
     15 H5C2        -4.0450    -1.3220    -4.1350 hc         1 KTA       0.032200
     16 H1          -2.5690    -0.1830    -0.9000 hc         1 KTA       0.057700
     17 H4C1        -4.6680    -3.2060    -2.6120 hc         1 KTA       0.051700
     18 H4C2        -3.0550    -3.3620    -3.3260 hc         1 KTA       0.051700
     19 H2C1        -0.9710    -2.6570    -1.5880 hc         1 KTA       0.085200
     20 H2C2        -1.5160    -2.1500     0.0170 hc         1 KTA       0.085200
     21 H7C1        -0.6110     1.0230    -1.7540 hc         1 KTA       0.035200
     22 H7C2         0.2100    -0.5100    -2.0480 hc         1 KTA       0.035200
@<TRIPOS>BOND
     1     1     4 1
     2     1     2 1
     3     1     3 1
     4     4     5 1
     5     4    21 1
     6     4    22 1
     7     5    10 1
     8     5     6 1
     9     5    16 1
    10     6     7 1
    11     6    19 1
    12     6    20 1
    13     7     8 1
    14     7    11 2
    15     8     9 1
    16     8    17 1
    17     8    18 1
    18     9    10 1
    19     9    14 1
    20     9    15 1
    21    10    12 1
    22    10    13 1
@<TRIPOS>SUBSTRUCTURE
     1 KTA         1 TEMP              0 ****  ****    0 ROOT
