@<TRIPOS>MOLECULE
KTA
   22    22     1     0     0
SMALL
bcc


@<TRIPOS>ATOM
      1 C8          0.0550    0.0940   -0.0190 c         1 KTA      0.907600
      2 O1          1.2480    0.4920    0.1170 o         1 KTA     -0.847800
      3 O2         -0.7310   -0.1200    0.9490 o         1 KTA     -0.847800
      4 C7         -0.4420   -0.1260   -1.4590 c3        1 KTA     -0.195400
      5 C1         -1.8270   -0.7400   -1.5350 c3        1 KTA     -0.040700
      6 C2         -1.7980   -2.1740   -1.0290 c3        1 KTA     -0.176400
      7 C3         -3.0710   -2.9210   -1.2770 c         1 KTA      0.577100
      8 C4         -3.7080   -2.7430   -2.6330 c3        1 KTA     -0.183400
      9 C5         -3.7400   -1.2910   -3.0550 c3        1 KTA     -0.068400
     10 C6         -2.3670   -0.6630   -2.9550 c3        1 KTA     -0.084400
     11 O3         -3.5710   -3.6970   -0.4520 o         1 KTA     -0.569100
     12 H6C1       -1.6620   -1.1820   -3.6540 hc        1 KTA      0.031700
     13 H6C2       -2.4240    0.4110   -3.2720 hc        1 KTA      0.031700
     14 H5C1       -4.1180   -1.2210   -4.1090 hc        1 KTA      0.031700
     15 H5C2       -4.4580   -0.7280   -2.4030 hc        1 KTA      0.031700
     16 H1         -2.5010   -0.1480   -0.8510 hc        1 KTA      0.071700
     17 H4C1       -3.1040   -3.3390   -3.3680 hc        1 KTA      0.050200
     18 H4C2       -4.7470   -3.1650   -2.6240 hc        1 KTA      0.050200
     19 H2C1       -1.5650   -2.1380    0.0740 hc        1 KTA      0.090200
     20 H2C2       -0.9730   -2.7430   -1.5360 hc        1 KTA      0.090200
     21 H7C1       -0.4510    0.8710   -1.9670 hc        1 KTA      0.024700
     22 H7C2        0.2980   -0.7730   -1.9940 hc        1 KTA      0.024700
@<TRIPOS>BOND
     1    1    2 1   
     2    1    3 1   
     3    1    4 1   
     4    4    5 1   
     5    4   21 1   
     6    4   22 1   
     7    5    6 1   
     8    5   10 1   
     9    5   16 1   
    10    6    7 1   
    11    6   19 1   
    12    6   20 1   
    13    7    8 1   
    14    7   11 2   
    15    8    9 1   
    16    8   17 1   
    17    8   18 1   
    18    9   10 1   
    19    9   14 1   
    20    9   15 1   
    21   10   12 1   
    22   10   13 1   
@<TRIPOS>SUBSTRUCTURE
     1 KTA         1 TEMP              0 ****  ****    0 ROOT
