@<TRIPOS>MOLECULE
molecule
   54    53     1     0     0
SMALL
bcc


@<TRIPOS>ATOM
      1 O1           0.0000     0.0000     0.0000 o          1 KTC      -0.858300
      2 C17          1.3430     0.0000     0.0000 c          1 KTC       0.890600
      3 O            1.9460     0.0000     1.0470 o          1 KTC      -0.858300
      4 C16          2.0960    -0.0000    -1.3050 c3         1 KTC      -0.182400
      5 C15          3.6000     0.0000    -1.0250 c3         1 KTC      -0.063400
      6 C14          4.3660    -0.0000    -2.3500 c3         1 KTC      -0.088400
      7 C13          5.8690     0.0000    -2.0700 c3         1 KTC      -0.081400
      8 C12          6.6350    -0.0000    -3.3950 c3         1 KTC      -0.082400
      9 C11          8.1390     0.0000    -3.1140 c3         1 KTC      -0.084400
     10 C10          8.9050    -0.0000    -4.4390 c3         1 KTC      -0.073400
     11 C9          10.4080     0.0000    -4.1590 c3         1 KTC      -0.183400
     12 C8          11.1630    -0.0000    -5.4650 c          1 KTC       0.560100
     13 O2          10.5590    -0.0000    -6.5100 o          1 KTC      -0.525100
     14 C7          12.6700     0.0000    -5.4640 c3         1 KTC      -0.185400
     15 C6          13.1800    -0.0000    -6.9070 c3         1 KTC      -0.072400
     16 C5          14.7100    -0.0000    -6.9060 c3         1 KTC      -0.084400
     17 C4          15.2210    -0.0000    -8.3480 c3         1 KTC      -0.080400
     18 C3          16.7500    -0.0000    -8.3470 c3         1 KTC      -0.082400
     19 C2          17.2610    -0.0000    -9.7910 c3         1 KTC      -0.081400
     20 C1          18.7910    -0.0000    -9.7900 c3         1 KTC      -0.084400
     21 C           19.3010    -0.0000   -11.2320 c3         1 KTC      -0.092100
     22 H2           1.8340    -0.8850    -1.8730 hc         1 KTC       0.026700
     23 H3           1.8340     0.8850    -1.8730 hc         1 KTC       0.026700
     24 H4           3.8610    -0.8840    -0.4570 hc         1 KTC       0.044700
     25 H5           3.8610     0.8840    -0.4570 hc         1 KTC       0.044700
     26 H6           4.1040    -0.8840    -2.9180 hc         1 KTC       0.029700
     27 H7           4.1040     0.8840    -2.9180 hc         1 KTC       0.029700
     28 H8           6.1310     0.8840    -1.5010 hc         1 KTC       0.037700
     29 H9           6.1310    -0.8840    -1.5010 hc         1 KTC       0.037700
     30 H10          6.3740     0.8840    -3.9630 hc         1 KTC       0.038700
     31 H11          6.3740    -0.8840    -3.9630 hc         1 KTC       0.038700
     32 H12          8.4000     0.8840    -2.5460 hc         1 KTC       0.037700
     33 H13          8.4000    -0.8840    -2.5460 hc         1 KTC       0.037700
     34 H14          8.6430    -0.8840    -5.0080 hc         1 KTC       0.052700
     35 H15          8.6430     0.8840    -5.0080 hc         1 KTC       0.052700
     36 H16         10.6700     0.8850    -3.5910 hc         1 KTC       0.062700
     37 H17         10.6700    -0.8850    -3.5910 hc         1 KTC       0.062700
     38 H18         13.0310    -0.8840    -4.9540 hc         1 KTC       0.061700
     39 H19         13.0310     0.8840    -4.9540 hc         1 KTC       0.061700
     40 H20         12.8190     0.8850    -7.4170 hc         1 KTC       0.054700
     41 H21         12.8190    -0.8850    -7.4170 hc         1 KTC       0.054700
     42 H22         15.0700     0.8850    -6.3950 hc         1 KTC       0.038700
     43 H23         15.0700    -0.8850    -6.3950 hc         1 KTC       0.038700
     44 H24         14.8600    -0.8850    -8.8590 hc         1 KTC       0.043700
     45 H25         14.8600     0.8850    -8.8590 hc         1 KTC       0.043700
     46 H26         17.1110     0.8850    -7.8360 hc         1 KTC       0.039700
     47 H27         17.1110    -0.8850    -7.8360 hc         1 KTC       0.039700
     48 H28         16.9000     0.8850   -10.3010 hc         1 KTC       0.041700
     49 H29         16.9000    -0.8850   -10.3010 hc         1 KTC       0.041700
     50 H30         19.1510    -0.8850    -9.2790 hc         1 KTC       0.039700
     51 H31         19.1510     0.8850    -9.2790 hc         1 KTC       0.039700
     52 H32         18.9400     0.8850   -11.7420 hc         1 KTC       0.031700
     53 H33         18.9400    -0.8850   -11.7420 hc         1 KTC       0.031700
     54 H34         20.3840    -0.0000   -11.2310 hc         1 KTC       0.031700
@<TRIPOS>BOND
     1    19    18 1
     2    19    20 1
     3    21    20 1
     4    18    17 1
     5    17    16 1
     6    16    15 1
     7    15    14 1
     8    13    12 2
     9    14    12 1
    10    12    11 1
    11    11    10 1
    12    10     9 1
    13     8     9 1
    14     8     7 1
    15     6     7 1
    16     6     5 1
    17     5     4 1
    18     4     2 1
    19     3     2 1
    20     2     1 1
    21     4    22 1
    22     4    23 1
    23     5    24 1
    24     5    25 1
    25     6    26 1
    26     6    27 1
    27     7    28 1
    28     7    29 1
    29     8    30 1
    30     8    31 1
    31     9    32 1
    32     9    33 1
    33    10    34 1
    34    10    35 1
    35    11    36 1
    36    11    37 1
    37    14    38 1
    38    14    39 1
    39    15    40 1
    40    15    41 1
    41    16    42 1
    42    16    43 1
    43    17    44 1
    44    17    45 1
    45    18    46 1
    46    18    47 1
    47    19    48 1
    48    19    49 1
    49    20    50 1
    50    20    51 1
    51    21    52 1
    52    21    53 1
    53    21    54 1
@<TRIPOS>SUBSTRUCTURE
     1 KTC         1 TEMP              0 ****  ****    0 ROOT
