@<TRIPOS>MOLECULE
KTC
   54    53     1     0     0
SMALL
bcc


@<TRIPOS>ATOM
      1 O1          0.5650    0.1880    0.7300 o         1 KTC     -0.853300
      2 C17         1.6980   -0.3530    0.5800 c         1 KTC      0.907600
      3 O           2.3550   -0.8820    1.5230 o         1 KTC     -0.853300
      4 C16         2.2930   -0.3850   -0.8390 c3        1 KTC     -0.194400
      5 C15         3.7490    0.0110   -0.8310 c3        1 KTC     -0.065400
      6 C14         4.4030   -0.2020   -2.1800 c3        1 KTC     -0.078400
      7 C13         5.8610    0.2040   -2.1570 c3        1 KTC     -0.079400
      8 C12         6.5270   -0.0290   -3.4960 c3        1 KTC     -0.078400
      9 C11         7.9890    0.3630   -3.4550 c3        1 KTC     -0.079400
     10 C10         8.6670    0.1160   -4.7860 c3        1 KTC     -0.074400
     11 C9         10.1360    0.4680   -4.7170 c3        1 KTC     -0.181400
     12 C8         10.8410    0.3020   -6.0330 c         1 KTC      0.565100
     13 O2         10.2630    0.3620   -7.1220 o         1 KTC     -0.533100
     14 C7         12.3220    0.0650   -5.9140 c3        1 KTC     -0.184400
     15 C6         13.0490    0.2330   -7.2290 c3        1 KTC     -0.075400
     16 C5         14.5240   -0.0710   -7.0820 c3        1 KTC     -0.078400
     17 C4         15.2520    0.1080   -8.3970 c3        1 KTC     -0.078400
     18 C3         16.7280   -0.1970   -8.2530 c3        1 KTC     -0.079400
     19 C2         17.4570   -0.0170   -9.5670 c3        1 KTC     -0.079400
     20 C1         18.9330   -0.3200   -9.4250 c3        1 KTC     -0.080400
     21 C          19.6630   -0.1410  -10.7320 c3        1 KTC     -0.092100
     22 H2          1.7070    0.2980   -1.5030 hc        1 KTC      0.019200
     23 H3          2.1820   -1.4270   -1.2330 hc        1 KTC      0.019200
     24 H4          3.8410    1.0890   -0.5370 hc        1 KTC      0.043700
     25 H5          4.2800   -0.5910   -0.0450 hc        1 KTC      0.043700
     26 H6          4.3200   -1.2830   -2.4710 hc        1 KTC      0.026700
     27 H7          3.8600    0.3920   -2.9620 hc        1 KTC      0.026700
     28 H8          6.3970   -0.3800   -1.3630 hc        1 KTC      0.035700
     29 H9          5.9430    1.2880   -1.8800 hc        1 KTC      0.035700
     30 H10         6.0000    0.5650   -4.2890 hc        1 KTC      0.036700
     31 H11         6.4360   -1.1110   -3.7780 hc        1 KTC      0.036700
     32 H12         8.0790    1.4470   -3.1830 hc        1 KTC      0.036200
     33 H13         8.5100   -0.2230   -2.6530 hc        1 KTC      0.036200
     34 H14         8.1740    0.7250   -5.5890 hc        1 KTC      0.052200
     35 H15         8.5530   -0.9620   -5.0760 hc        1 KTC      0.052200
     36 H16        10.2550    1.5410   -4.4020 hc        1 KTC      0.062200
     37 H17        10.6430   -0.1650   -3.9420 hc        1 KTC      0.062200
     38 H18        12.7410    0.7710   -5.1490 hc        1 KTC      0.063200
     39 H19        12.4720   -0.9780   -5.5240 hc        1 KTC      0.063200
     40 H20        12.5910   -0.4470   -7.9960 hc        1 KTC      0.053700
     41 H21        12.9100    1.2820   -7.6010 hc        1 KTC      0.053700
     42 H22        14.9730    0.6060   -6.3080 hc        1 KTC      0.037200
     43 H23        14.6580   -1.1240   -6.7180 hc        1 KTC      0.037200
     44 H24        14.8020   -0.5680   -9.1700 hc        1 KTC      0.041700
     45 H25        15.1190    1.1610   -8.7600 hc        1 KTC      0.041700
     46 H26        17.1780    0.4790   -7.4780 hc        1 KTC      0.038700
     47 H27        16.8610   -1.2500   -7.8900 hc        1 KTC      0.038700
     48 H28        17.0080   -0.6930  -10.3420 hc        1 KTC      0.039700
     49 H29        17.3230    1.0360   -9.9310 hc        1 KTC      0.039700
     50 H30        19.3800    0.3560   -8.6490 hc        1 KTC      0.037700
     51 H31        19.0650   -1.3730   -9.0610 hc        1 KTC      0.037700
     52 H32        19.2480   -0.8250  -11.5110 hc        1 KTC      0.031367
     53 H33        20.7490   -0.3690  -10.6050 hc        1 KTC      0.031367
     54 H34        19.5630    0.9090  -11.0990 hc        1 KTC      0.031367
@<TRIPOS>BOND
     1    1    2 1   
     2    2    3 1   
     3    2    4 1   
     4    4    5 1   
     5    4   22 1   
     6    4   23 1   
     7    5    6 1   
     8    5   24 1   
     9    5   25 1   
    10    6    7 1   
    11    6   26 1   
    12    6   27 1   
    13    7    8 1   
    14    7   28 1   
    15    7   29 1   
    16    8    9 1   
    17    8   30 1   
    18    8   31 1   
    19    9   10 1   
    20    9   32 1   
    21    9   33 1   
    22   10   11 1   
    23   10   34 1   
    24   10   35 1   
    25   11   12 1   
    26   11   36 1   
    27   11   37 1   
    28   12   13 2   
    29   12   14 1   
    30   14   15 1   
    31   14   38 1   
    32   14   39 1   
    33   15   16 1   
    34   15   40 1   
    35   15   41 1   
    36   16   17 1   
    37   16   42 1   
    38   16   43 1   
    39   17   18 1   
    40   17   44 1   
    41   17   45 1   
    42   18   19 1   
    43   18   46 1   
    44   18   47 1   
    45   19   20 1   
    46   19   48 1   
    47   19   49 1   
    48   20   21 1   
    49   20   50 1   
    50   20   51 1   
    51   21   52 1   
    52   21   53 1   
    53   21   54 1   
@<TRIPOS>SUBSTRUCTURE
     1 KTC         1 TEMP              0 ****  ****    0 ROOT
