@<TRIPOS>MOLECULE
KTD
   34    36     1     0     0
SMALL
bcc


@<TRIPOS>ATOM
      1 CAJ          0.0000     0.0000     0.0000 ca         1 KTD      -0.050000
      2 CAV          1.3830     0.0000     0.0000 ca         1 KTD      -0.047100
      3 SAP          2.6270     0.0000     1.2510 ss         1 KTD       0.075600
      4 N1           3.8380     0.0010     0.2580 nc         1 KTD      -0.127500
      5 N2           3.4270     0.0010    -0.9460 nd         1 KTD      -0.124400
      6 CAU          2.1140     0.0000    -1.2050 ca         1 KTD       0.002400
      7 CAI          1.3950     0.0000    -2.4160 ca         1 KTD       0.001000
      8 CAH          0.0340    -0.0010    -2.4060 ca         1 KTD      -0.132000
      9 CAS         -0.6790     0.0000    -1.2070 ca         1 KTD      -0.050400
     10 N3          -2.0790    -0.0070    -1.2230 ns         1 KTD      -0.048100
     11 CAR         -2.7670     0.6280    -0.2530 c          1 KTD       0.566100
     12 OAB         -2.1760     1.2850     0.5810 o          1 KTD      -0.696100
     13 N           -4.1120     0.5320    -0.2090 ns         1 KTD      -0.210900
     14 CA          -4.8600     1.2220     0.8460 c3         1 KTD      -0.030000
     15 C           -6.3320     0.9550     0.6720 c          1 KTD       0.627700
     16 O           -6.7190     0.2590    -0.2430 o          1 KTD      -0.571100
     17 CAT         -7.3020     1.5410     1.6120 ca         1 KTD      -0.197600
     18 CAF         -8.6700     1.2970     1.4530 ca         1 KTD      -0.044000
     19 CAD         -9.5710     1.8500     2.3380 ca         1 KTD      -0.116000
     20 CAC         -9.1270     2.6430     3.3800 ca         1 KTD      -0.062000
     21 CAE         -7.7740     2.8900     3.5430 ca         1 KTD      -0.116000
     22 CAG         -6.8600     2.3400     2.6710 ca         1 KTD      -0.044000
     23 H1          -0.5470     0.0010     0.9350 ha         1 KTD       0.154000
     24 H2           1.9270    -0.0010    -3.3590 ha         1 KTD       0.115000
     25 H3          -0.5050    -0.0000    -3.3450 ha         1 KTD       0.111000
     26 H4          -2.5680    -0.5110    -1.9360 hn         1 KTD       0.167500
     27 H5          -4.6010     0.0230    -0.9180 hn         1 KTD       0.194500
     28 H6          -4.6750     2.2870     0.7820 h1         1 KTD       0.049200
     29 H7          -4.5380     0.8570     1.8140 h1         1 KTD       0.049200
     30 H8          -9.0200     0.6760     0.6380 ha         1 KTD       0.117000
     31 H9         -10.6310     1.6610     2.2170 ha         1 KTD       0.109000
     32 H10         -9.8410     3.0760     4.0700 ha         1 KTD       0.104000
     33 H11         -7.4330     3.5110     4.3630 ha         1 KTD       0.109000
     34 H12         -5.8020     2.5340     2.8000 ha         1 KTD       0.117000
@<TRIPOS>BOND
     1     1     2 ar  
     2     1     9 ar  
     3     1    23 1   
     4     2     3 1   
     5     2     6 ar  
     6     3     4 1   
     7     4     5 2   
     8     5     6 1   
     9     6     7 ar  
    10     7     8 ar  
    11     7    24 1   
    12     8     9 ar  
    13     8    25 1   
    14     9    10 1   
    15    10    11 1   
    16    10    26 1   
    17    11    12 2   
    18    11    13 1   
    19    13    14 1   
    20    13    27 1   
    21    14    15 1   
    22    14    28 1   
    23    14    29 1   
    24    15    16 2   
    25    15    17 1   
    26    17    18 ar  
    27    17    22 ar  
    28    18    19 ar  
    29    18    30 1   
    30    19    20 ar  
    31    19    31 1   
    32    20    21 ar  
    33    20    32 1   
    34    21    22 ar  
    35    21    33 1   
    36    22    34 1   
@<TRIPOS>SUBSTRUCTURE
     1 KTD         1 TEMP              0 ****  ****    0 ROOT
