@<TRIPOS>MOLECULE
molecule
   34    36     1     0     0
SMALL
bcc


@<TRIPOS>ATOM
      1 CAJ          0.0000     0.0000     0.0000 ca         1 KTD      -0.086000
      2 CAV          1.3830     0.0000     0.0000 ca         1 KTD      -0.083100
      3 SAP          2.6270     0.0000     1.2510 ss         1 KTD       0.199600
      4 N1           3.8380     0.0010     0.2580 nc         1 KTD      -0.157500
      5 N2           3.4270     0.0010    -0.9460 nd         1 KTD      -0.209400
      6 CAU          2.1140     0.0000    -1.2050 ca         1 KTD       0.042400
      7 CAI          1.3950     0.0000    -2.4160 ca         1 KTD      -0.039000
      8 CAH          0.0340    -0.0010    -2.4060 ca         1 KTD      -0.153000
      9 CAS         -0.6790     0.0000    -1.2070 ca         1 KTD       0.090600
     10 N3          -2.0790    -0.0070    -1.2230 ns         1 KTD      -0.488100
     11 CAR         -2.7670     0.6280    -0.2530 c          1 KTD       0.784100
     12 OAB         -2.1760     1.2850     0.5810 o          1 KTD      -0.648100
     13 N           -4.1120     0.5320    -0.2090 ns         1 KTD      -0.595900
     14 CA          -4.8600     1.2220     0.8460 c3         1 KTD       0.035000
     15 C           -6.3320     0.9550     0.6720 c          1 KTD       0.572700
     16 O           -6.7190     0.2590    -0.2430 o          1 KTD      -0.536100
     17 CAT         -7.3020     1.5410     1.6120 ca         1 KTD      -0.184600
     18 CAF         -8.6700     1.2970     1.4530 ca         1 KTD      -0.076000
     19 CAD         -9.5710     1.8500     2.3380 ca         1 KTD      -0.141500
     20 CAC         -9.1270     2.6430     3.3800 ca         1 KTD      -0.093000
     21 CAE         -7.7740     2.8900     3.5430 ca         1 KTD      -0.141500
     22 CAG         -6.8600     2.3400     2.6710 ca         1 KTD      -0.076000
     23 H1          -0.5470     0.0010     0.9350 ha         1 KTD       0.175000
     24 H2           1.9270    -0.0010    -3.3590 ha         1 KTD       0.152000
     25 H3          -0.5050    -0.0000    -3.3450 ha         1 KTD       0.140000
     26 H4          -2.5680    -0.5110    -1.9360 hn         1 KTD       0.325500
     27 H5          -4.6010     0.0230    -0.9180 hn         1 KTD       0.331500
     28 H6          -4.6750     2.2870     0.7820 h1         1 KTD       0.079200
     29 H7          -4.5380     0.8570     1.8140 h1         1 KTD       0.079200
     30 H8          -9.0200     0.6760     0.6380 ha         1 KTD       0.145000
     31 H9         -10.6310     1.6610     2.2170 ha         1 KTD       0.138000
     32 H10         -9.8410     3.0760     4.0700 ha         1 KTD       0.135000
     33 H11         -7.4330     3.5110     4.3630 ha         1 KTD       0.138000
     34 H12         -5.8020     2.5340     2.8000 ha         1 KTD       0.145000
@<TRIPOS>BOND
     1     4     5 2
     2     4     3 1
     3     5     6 1
     4     3     2 1
     5     6     2 ar
     6     6     7 ar
     7     2     1 ar
     8     7     8 ar
     9     1     9 ar
    10     8     9 ar
    11     9    10 1
    12    12    11 2
    13    10    11 1
    14    11    13 1
    15    13    14 1
    16    14    15 1
    17    15    16 2
    18    15    17 1
    19    22    17 ar
    20    22    21 ar
    21    17    18 ar
    22    21    20 ar
    23    18    19 ar
    24    20    19 ar
    25     1    23 1
    26     7    24 1
    27     8    25 1
    28    10    26 1
    29    13    27 1
    30    14    28 1
    31    14    29 1
    32    18    30 1
    33    19    31 1
    34    20    32 1
    35    21    33 1
    36    22    34 1
@<TRIPOS>SUBSTRUCTURE
     1 KTD         1 TEMP              0 ****  ****    0 ROOT
