@<TRIPOS>MOLECULE
molecule
   10    10     1     0     0
SMALL
bcc


@<TRIPOS>ATOM
      1 S1           0.0000     0.0000     0.0000 ss         1 KTH      -0.230300
      2 O2          -1.4330     0.0010     3.7570 o          1 KTH      -0.475100
      3 C5           1.7360     0.0000     0.0000 cc         1 KTH      -0.148400
      4 C2          -0.2310     0.0010     1.7710 cc         1 KTH       0.383900
      5 C2'         -1.4730     0.0010     2.5440 c          1 KTH       0.506400
      6 C4           2.0080     0.0000     1.3390 cd         1 KTH       0.332200
      7 N3           1.0280     0.0050     2.1990 nd         1 KTH      -0.635000
      8 H5           2.4220    -0.0020    -0.8390 h4         1 KTH       0.201000
      9 H2'         -2.4290     0.0010     2.0340 h4         1 KTH       0.021200
     10 H4           3.0340     0.0010     1.6850 h4         1 KTH       0.043100
@<TRIPOS>BOND
     1     1     3 1
     2     1     4 1
     3     2     5 2
     4     3     6 2
     5     3     8 1
     6     4     5 1
     7     4     7 2
     8     5     9 1
     9     6     7 1
    10     6    10 1
@<TRIPOS>SUBSTRUCTURE
     1 KTH         1 TEMP              0 ****  ****    0 ROOT
