@<TRIPOS>MOLECULE
KTJ
   22    23     1     0     0
SMALL
bcc


@<TRIPOS>ATOM
      1 CAH          0.0000     0.0000     0.0000 ca         1 KTJ      -0.089000
      2 CAI          1.3800     0.0000     0.0000 ca         1 KTJ      -0.134500
      3 CAJ          2.0750     0.0000     1.2010 ca         1 KTJ       0.112100
      4 OAM          3.4350     0.0010     1.1970 oh         1 KTJ      -0.501100
      5 CAK          1.3850    -0.0010     2.4050 ca         1 KTJ      -0.134500
      6 CAL          0.0060    -0.0020     2.4110 ca         1 KTJ      -0.089000
      7 CAG         -0.6950     0.0040     1.2080 ca         1 KTJ       0.012000
      8 CAC         -2.1790     0.0040     1.2120 cc         1 KTJ      -0.314300
      9 CAB         -2.9830    -0.8440     1.9160 cd         1 KTJ      -0.231300
     10 NAA         -4.2630    -0.5130     1.6460 na         1 KTJ       0.458400
     11 NAE         -4.2610     0.5630     0.7520 nd         1 KTJ      -0.740800
     12 CAD         -3.0180     0.8850     0.4900 cc         1 KTJ       0.508200
     13 NAF         -2.5940     1.9140    -0.3560 nv         1 KTJ      -0.530500
     14 H1          -0.5420     0.0020    -0.9380 ha         1 KTJ       0.109000
     15 H2           1.9210    -0.0030    -0.9380 ha         1 KTJ       0.112000
     16 H3           3.7480     0.8900     1.1990 ho         1 KTJ       0.400000
     17 H4           1.9310    -0.0040     3.3410 ha         1 KTJ       0.112000
     18 H5          -0.5310    -0.0010     3.3520 ha         1 KTJ       0.109000
     19 H6          -2.6530    -1.6380     2.5740 h4         1 KTJ       0.144000
     20 H7          -5.0760    -0.9640     2.0190 hn         1 KTJ       0.144700
     21 H8          -1.6410     2.2180    -0.3340 hn         1 KTJ       0.270800
     22 H9          -3.2560     2.3860    -0.9390 hn         1 KTJ       0.270800
@<TRIPOS>BOND
     1     1     2 ar  
     2     1     7 ar  
     3     1    14 1   
     4     2     3 ar  
     5     2    15 1   
     6     3     4 1   
     7     3     5 ar  
     8     4    16 1   
     9     5     6 ar  
    10     5    17 1   
    11     6     7 ar  
    12     6    18 1   
    13     7     8 1   
    14     8     9 2   
    15     8    12 1   
    16     9    10 1   
    17     9    19 1   
    18    10    11 1   
    19    10    20 1   
    20    11    12 2   
    21    12    13 1   
    22    13    21 1   
    23    13    22 1   
@<TRIPOS>SUBSTRUCTURE
     1 KTJ         1 TEMP              0 ****  ****    0 ROOT
