@<TRIPOS>MOLECULE
KTK
   34    36     1     0     0
SMALL
bcc


@<TRIPOS>ATOM
      1 CAO          0.0000     0.0000     0.0000 ca         1 KTK      -0.076000
      2 CAP          1.3790     0.0000     0.0000 ca         1 KTK      -0.140000
      3 CAQ          2.0760     0.0000     1.2010 ca         1 KTK       0.115100
      4 OAT          3.4350    -0.0010     1.1950 oh         1 KTK      -0.503100
      5 CAR          1.3870     0.0010     2.4050 ca         1 KTK      -0.140000
      6 CAS          0.0090     0.0010     2.4140 ca         1 KTK      -0.076000
      7 CAN         -0.6940     0.0060     1.2100 ca         1 KTK       0.011000
      8 CAJ         -2.1770     0.0070     1.2140 cc         1 KTK      -0.288300
      9 CAK         -3.0130    -1.0320     1.6730 cc         1 KTK       0.509200
     10 NAM         -2.5840    -2.2510     2.2080 nv         1 KTK      -0.531500
     11 NAL         -4.2600    -0.6600     1.5150 nd         1 KTK      -0.741800
     12 NAA         -4.2870     0.6210     0.9530 na         1 KTK       0.458400
     13 CAB         -3.0010     1.0350     0.7730 cd         1 KTK      -0.153300
     14 CAC         -2.5660     2.3280     0.2120 ca         1 KTK      -0.068000
     15 CAH         -2.8300     2.6380    -1.1230 ca         1 KTK      -0.045000
     16 CAG         -2.4220     3.8470    -1.6440 ca         1 KTK      -0.166000
     17 CAF         -1.7480     4.7610    -0.8440 ca         1 KTK       0.162100
     18 OAI         -1.3480     5.9510    -1.3640 oh         1 KTK      -0.499100
     19 CAE         -1.4820     4.4630     0.4850 ca         1 KTK      -0.219000
     20 CAD         -1.8910     3.2540     1.0200 ca         1 KTK       0.182100
     21 OAU         -1.6310     2.9610     2.3200 oh         1 KTK      -0.473100
     22 H1          -0.5430     0.0020    -0.9370 ha         1 KTK       0.108500
     23 H2           1.9200    -0.0050    -0.9390 ha         1 KTK       0.111500
     24 H3           3.7500     0.8880     1.2010 ho         1 KTK       0.400000
     25 H4           1.9340    -0.0010     3.3410 ha         1 KTK       0.111500
     26 H5          -0.5280     0.0040     3.3550 ha         1 KTK       0.108500
     27 H6          -3.2300    -2.8360     2.7020 hn         1 KTK       0.270800
     28 H7          -1.6270    -2.5280     2.1170 hn         1 KTK       0.270800
     29 H9          -3.3550     1.9280    -1.7500 ha         1 KTK       0.109000
     30 H10         -2.6280     4.0860    -2.6800 ha         1 KTK       0.119000
     31 H11         -2.0200     6.5970    -1.2210 ho         1 KTK       0.404000
     32 H12         -0.9580     5.1800     1.1060 ha         1 KTK       0.125000
     33 H13         -1.9230     3.6720     2.8670 ho         1 KTK       0.400000
     34 H8          -5.1090     1.1460     0.7270 hn         1 KTK       0.143700
@<TRIPOS>BOND
     1     1     2 ar  
     2     1     7 ar  
     3     1    22 1   
     4     2     3 ar  
     5     2    23 1   
     6     3     4 1   
     7     3     5 ar  
     8     4    24 1   
     9     5     6 ar  
    10     5    25 1   
    11     6     7 ar  
    12     6    26 1   
    13     7     8 1   
    14     8     9 1   
    15     8    13 2   
    16     9    10 1   
    17     9    11 2   
    18    10    27 1   
    19    10    28 1   
    20    11    12 1   
    21    12    13 1   
    22    12    34 1   
    23    13    14 1   
    24    14    15 ar  
    25    14    20 ar  
    26    15    16 ar  
    27    15    29 1   
    28    16    17 ar  
    29    16    30 1   
    30    17    18 1   
    31    17    19 ar  
    32    18    31 1   
    33    19    20 ar  
    34    19    32 1   
    35    20    21 1   
    36    21    33 1   
@<TRIPOS>SUBSTRUCTURE
     1 KTK         1 TEMP              0 ****  ****    0 ROOT
