@<TRIPOS>MOLECULE
KTN
   64    68     1     0     0
SMALL
bcc


@<TRIPOS>ATOM
      1 N1           0.0000     0.0000     0.0000 na         1 KTN       0.287100
      2 C1           1.3510     0.0000     0.0000 cc         1 KTN       0.226400
      3 N2           1.7690     0.0000     1.2360 nd         1 KTN      -0.623000
      4 C2           0.7120    -0.0100     2.0610 cd         1 KTN       0.316200
      5 C3          -0.4040    -0.0100     1.3070 cc         1 KTN      -0.436600
      6 C4          -0.8690     0.0040    -1.1790 c3         1 KTN      -0.086700
      7 C5          -1.1770     1.4470    -1.5810 c3         1 KTN       0.407900
      8 O1           0.0520     2.1750    -1.7470 os         1 KTN      -0.383600
      9 C6           0.2620     2.8400    -0.4790 c3         1 KTN       0.097100
     10 C7          -1.1880     3.2000    -0.0670 c3         1 KTN       0.187400
     11 O2          -1.9520     2.0780    -0.5540 os         1 KTN      -0.411600
     12 C8          -1.9470     1.4580    -2.8750 ca         1 KTN      -0.130300
     13 C9          -1.3300     1.0770    -4.0520 ca         1 KTN      -0.006600
     14 C10         -2.0390     1.0820    -5.2390 ca         1 KTN      -0.103000
     15 C11         -3.3630     1.4780    -5.2520 ca         1 KTN      -0.017600
     16 C12         -3.9790     1.8670    -4.0750 ca         1 KTN      -0.105000
     17 C13         -3.2710     1.8560    -2.8880 ca         1 KTN      -0.050000
     18 Cl1         -4.2530     1.4930    -6.7420 cl         1 KTN      -0.010400
     19 C14          1.1100     4.1010    -0.6570 c3         1 KTN       0.181400
     20 O3           2.4160     3.7380    -1.1050 os         1 KTN      -0.263900
     21 C15          3.1190     4.8930    -1.2440 ca         1 KTN       0.120100
     22 C16          4.4390     4.8550    -1.6720 ca         1 KTN      -0.158500
     23 C17          5.1540     6.0280    -1.8130 ca         1 KTN      -0.096500
     24 C18          4.5520     7.2450    -1.5250 ca         1 KTN      -0.033400
     25 C19          3.2350     7.2830    -1.0920 ca         1 KTN      -0.096500
     26 C20          2.5180     6.1090    -0.9570 ca         1 KTN      -0.158500
     27 N3           5.2760     8.4350    -1.6680 nh         1 KTN      -0.348000
     28 C21          4.3730     9.5270    -1.2940 c3         1 KTN       0.106300
     29 C22          5.1100    10.8650    -1.4040 c3         1 KTN       0.049500
     30 N4           5.6390    10.9930    -2.7700 n          1 KTN      -0.166800
     31 C23          6.3830     9.8530    -3.3290 c3         1 KTN       0.049500
     32 C24          5.5710     8.5800    -3.0980 c3         1 KTN       0.106300
     33 C25          5.4420    12.1150    -3.4900 c          1 KTN       0.590100
     34 O4           4.8220    13.0410    -3.0130 o          1 KTN      -0.648100
     35 C26          5.9940    12.2210    -4.8880 c3         1 KTN      -0.072100
     36 Cl2          0.3340     0.5780    -4.0360 cl         1 KTN       0.007600
     37 HC1          1.9820     0.0080    -0.8800 h5         1 KTN       0.032100
     38 HC2          0.7490    -0.0140     3.1440 h4         1 KTN       0.003100
     39 HC3         -1.4260    -0.0130     1.6670 h4         1 KTN       0.157000
     40 HC41        -1.7930    -0.5120    -0.9480 h1         1 KTN       0.059700
     41 HC42        -0.3690    -0.5000    -1.9980 h1         1 KTN       0.059700
     42 HC6          0.7080     2.1630     0.2400 h1         1 KTN       0.067700
     43 HC71        -1.2700     3.2780     1.0100 h1         1 KTN       0.024700
     44 HC72        -1.5050     4.1160    -0.5510 h1         1 KTN       0.024700
     45 H10         -1.5550     0.7800    -6.1600 ha         1 KTN       0.129000
     46 H12         -5.0170     2.1780    -4.0830 ha         1 KTN       0.120000
     47 H13         -3.7540     2.1600    -1.9670 ha         1 KTN       0.128000
     48 H141         0.6450     4.7500    -1.3890 h1         1 KTN       0.021700
     49 H142         1.1860     4.6220     0.2900 h1         1 KTN       0.021700
     50 H16          4.9080     3.9040    -1.8960 ha         1 KTN       0.124000
     51 H17          6.1830     5.9980    -2.1490 ha         1 KTN       0.121000
     52 H19          2.7650     8.2330    -0.8670 ha         1 KTN       0.121000
     53 H20          1.4900     6.1380    -0.6180 ha         1 KTN       0.124000
     54 H211         3.5180     9.5310    -1.9600 h1         1 KTN       0.028200
     55 H212         4.0400     9.3830    -0.2730 h1         1 KTN       0.028200
     56 H221         4.4210    11.6770    -1.2030 h1         1 KTN       0.035700
     57 H222         5.9280    10.8890    -0.6940 h1         1 KTN       0.035700
     58 H231         7.3410     9.7670    -2.8320 h1         1 KTN       0.035700
     59 H232         6.5300    10.0020    -4.3920 h1         1 KTN       0.035700
     60 H241         4.6420     8.6400    -3.6520 h1         1 KTN       0.028200
     61 H242         6.1420     7.7230    -3.4360 h1         1 KTN       0.028200
     62 H261         5.5110    11.4880    -5.5230 hc         1 KTN       0.024367
     63 H262         7.0610    12.0350    -4.8700 hc         1 KTN       0.024367
     64 H263         5.8070    13.2150    -5.2760 hc         1 KTN       0.024367
@<TRIPOS>BOND
     1     1     2 1   
     2     1     5 1   
     3     1     6 1   
     4     2     3 2   
     5     2    37 1   
     6     3     4 1   
     7     4     5 2   
     8     4    38 1   
     9     5    39 1   
    10     6     7 1   
    11     6    40 1   
    12     6    41 1   
    13     7     8 1   
    14     7    11 1   
    15     7    12 1   
    16     8     9 1   
    17     9    10 1   
    18     9    19 1   
    19     9    42 1   
    20    10    11 1   
    21    10    43 1   
    22    10    44 1   
    23    12    13 ar  
    24    12    17 ar  
    25    13    14 ar  
    26    13    36 1   
    27    14    15 ar  
    28    14    45 1   
    29    15    16 ar  
    30    15    18 1   
    31    16    17 ar  
    32    16    46 1   
    33    17    47 1   
    34    19    20 1   
    35    19    48 1   
    36    19    49 1   
    37    20    21 1   
    38    21    22 ar  
    39    21    26 ar  
    40    22    23 ar  
    41    22    50 1   
    42    23    24 ar  
    43    23    51 1   
    44    24    25 ar  
    45    24    27 1   
    46    25    26 ar  
    47    25    52 1   
    48    26    53 1   
    49    27    28 1   
    50    27    32 1   
    51    28    29 1   
    52    28    54 1   
    53    28    55 1   
    54    29    30 1   
    55    29    56 1   
    56    29    57 1   
    57    30    31 1   
    58    30    33 1   
    59    31    32 1   
    60    31    58 1   
    61    31    59 1   
    62    32    60 1   
    63    32    61 1   
    64    33    34 2   
    65    33    35 1   
    66    35    62 1   
    67    35    63 1   
    68    35    64 1   
@<TRIPOS>SUBSTRUCTURE
     1 KTN         1 TEMP              0 ****  ****    0 ROOT
