@<TRIPOS>MOLECULE
molecule
   52    55     1     0     0
SMALL
bcc


@<TRIPOS>ATOM
      1 O20          0.0000     0.0000     0.0000 o          1 KTO      -0.491100
      2 C17          1.2080     0.0000     0.0000 c          1 KTO       0.570100
      3 C15          1.9920     0.0000     1.2960 c3         1 KTO      -0.209900
      4 C14          3.0480    -1.1070     1.2210 c3         1 KTO       0.161500
      5 C11          1.9920    -0.0050    -1.2950 c3         1 KTO      -0.209900
      6 C13          3.0470    -1.1120    -1.2140 c3         1 KTO       0.161500
      7 C12          2.3660    -2.4790    -1.2340 c3         1 KTO      -0.071400
      8 C16          1.4890    -2.6280     0.0130 c3         1 KTO      -0.114400
      9 C10          2.3660    -2.4740     1.2460 c3         1 KTO      -0.071400
     10 N18          3.8450    -0.9570     0.0010 n3         1 KTO      -0.450100
     11 O19          4.5710     0.3130    -0.0070 os         1 KTO      -0.327100
     12 C1           5.9910     0.1700     0.0630 c3         1 KTO       0.188100
     13 C23          6.6670     1.5420     0.0090 c3         1 KTO      -0.065400
     14 C22          6.3440     2.3210     1.2850 c3         1 KTO      -0.036500
     15 N21          4.8930     2.5290     1.3780 nz         1 KTO      -0.807600
     16 C24          7.0420     3.6570     1.2480 c          1 KTO       0.565900
     17 O25          6.3960     4.6760     1.2960 o          1 KTO      -0.490100
     18 C2           6.4970    -0.7260    -1.0790 c3         1 KTO       0.370300
     19 O49          7.4550    -0.0240    -1.8730 oh         1 KTO      -0.627800
     20 N3           7.1260    -1.8720    -0.4170 nu         1 KTO      -0.683600
     21 C4           7.0380    -1.7330     0.9680 ca         1 KTO       0.136600
     22 C5           6.3870    -0.5620     1.3250 ca         1 KTO      -0.206300
     23 C6           7.5020    -2.5840     1.9750 ca         1 KTO      -0.120000
     24 C7           7.3120    -2.2600     3.3010 ca         1 KTO      -0.077000
     25 C8           6.6610    -1.0910     3.6460 ca         1 KTO      -0.136000
     26 C9           6.1980    -0.2430     2.6550 ca         1 KTO      -0.119000
     27 H1           2.4780     0.9590     1.4260 hc         1 KTO       0.069200
     28 H2           1.3220    -0.1910     2.1250 hc         1 KTO       0.069200
     29 H3           3.7030    -1.0250     2.0800 h1         1 KTO       0.074200
     30 H4           2.4800     0.9530    -1.4290 hc         1 KTO       0.069200
     31 H5           1.3230    -0.2000    -2.1250 hc         1 KTO       0.069200
     32 H6           3.7020    -1.0350    -2.0740 h1         1 KTO       0.074200
     33 H7           3.1200    -3.2580    -1.2380 hc         1 KTO       0.070450
     34 H8           1.7480    -2.5620    -2.1200 hc         1 KTO       0.070450
     35 H9           0.7250    -1.8600     0.0130 hc         1 KTO       0.072200
     36 H10          1.0270    -3.6080     0.0170 hc         1 KTO       0.072200
     37 H11          1.7530    -2.5540     2.1360 hc         1 KTO       0.070450
     38 H12          3.1200    -3.2520     1.2510 hc         1 KTO       0.070450
     39 H13          6.3020     2.0910    -0.8510 hc         1 KTO       0.106200
     40 H14          7.7390     1.4130    -0.0740 hc         1 KTO       0.106200
     41 H15          6.6840     1.7600     2.1460 hx         1 KTO       0.153700
     42 H16          4.5080     1.8980     2.0530 hn         1 KTO       0.463133
     43 H17          4.4730     2.3600     0.4860 hn         1 KTO       0.463133
     44 H19          8.1240     3.7020     1.2290 h4         1 KTO       0.072200
     45 H22          5.6660    -1.0580    -1.6900 h2         1 KTO       0.098700
     46 H23          7.4960    -0.4100    -2.7320 ho         1 KTO       0.436000
     47 H24          8.0880    -1.9260    -0.6870 hn         1 KTO       0.399800
     48 H25          8.0140    -3.5020     1.7120 ha         1 KTO       0.158000
     49 H26          7.6750    -2.9250     4.0750 ha         1 KTO       0.157000
     50 H27          6.5130    -0.8390     4.6890 ha         1 KTO       0.147000
     51 H18          5.6880     0.6740     2.9240 ha         1 KTO       0.082000
     52 H213         4.7080     3.4820     1.6220 hn         1 KTO       0.463133
@<TRIPOS>BOND
     1    19    18 1
     2    15    14 1
     3    18    20 1
     4    18    12 1
     5    20    21 1
     6    16    14 1
     7    16    17 2
     8    13    14 1
     9    13    12 1
    10    21    23 ar
    11    21    22 ar
    12    23    24 ar
    13    12    22 1
    14    12    11 1
    15    22    26 ar
    16    24    25 ar
    17    26    25 ar
    18    11    10 1
    19    10     6 1
    20    10     4 1
    21     6     7 1
    22     6     5 1
    23     4     9 1
    24     4     3 1
    25     7     8 1
    26     9     8 1
    27     5     2 1
    28     3     2 1
    29     2     1 2
    30     3    27 1
    31     3    28 1
    32     4    29 1
    33     5    30 1
    34     5    31 1
    35     6    32 1
    36     7    33 1
    37     7    34 1
    38     8    35 1
    39     8    36 1
    40     9    37 1
    41     9    38 1
    42    13    39 1
    43    13    40 1
    44    14    41 1
    45    15    42 1
    46    15    43 1
    47    16    44 1
    48    18    45 1
    49    19    46 1
    50    20    47 1
    51    23    48 1
    52    24    49 1
    53    25    50 1
    54    26    51 1
    55    52    15 1
@<TRIPOS>SUBSTRUCTURE
     1 KTO         1 TEMP              0 ****  ****    0 ROOT
