@<TRIPOS>MOLECULE
molecule
   42    45     1     0     0
SMALL
bcc


@<TRIPOS>ATOM
      1 P1           0.0000     0.0000     0.0000 p5         1 KTP       0.991700
      2 O1          -0.4930    -1.1290     0.8180 o          1 KTP      -0.874500
      3 O2           2.6750    -1.0380     1.9400 o          1 KTP      -0.573100
      4 C1           1.8230     0.0000     0.0000 c3         1 KTP      -0.251600
      5 C2           2.3260     0.0000     1.4200 c          1 KTP       0.616700
      6 O3          -0.5360    -0.1570    -1.5100 o          1 KTP      -0.874500
      7 O4          -0.5360     1.3860     0.6190 o          1 KTP      -0.874500
      8 C3           2.3890     1.2590     2.1770 ca         1 KTP      -0.106600
      9 C4           2.7220     1.2360     3.5250 ca         1 KTP      -0.091000
     10 C5           2.7860     2.4410     4.2390 ca         1 KTP      -0.054000
     11 C6           3.1240     2.4610     5.6030 ca         1 KTP      -0.102000
     12 C7           3.1730     3.6470     6.2690 ca         1 KTP      -0.169000
     13 C8           2.8910     4.8450     5.6190 ca         1 KTP      -0.154000
     14 C9           2.5610     4.8660     4.2970 ca         1 KTP      -0.120000
     15 C10          2.5000     3.6620     3.5760 ca         1 KTP      -0.020000
     16 C11          2.1610     3.6520     2.2100 ca         1 KTP      -0.160000
     17 C12          2.1080     2.4790     1.5320 ca         1 KTP      -0.010000
     18 C13          1.5680    -2.3600    -0.7400 ca         1 KTP      -0.094000
     19 C14          2.3260    -1.2290    -0.7110 ca         1 KTP       0.027700
     20 C15          3.5740    -1.2150    -1.3520 ca         1 KTP      -0.032000
     21 C16          4.3870    -0.0680    -1.3380 ca         1 KTP      -0.082000
     22 C17          5.5950    -0.0910    -1.9660 ca         1 KTP      -0.178000
     23 C18          6.0430    -1.2390    -2.6180 ca         1 KTP      -0.159000
     24 C19          5.2850    -2.3700    -2.6470 ca         1 KTP      -0.131000
     25 C20          4.0320    -2.3830    -2.0110 ca         1 KTP      -0.039000
     26 C21          3.2230    -3.5310    -2.0190 ca         1 KTP      -0.185000
     27 C22          2.0160    -3.5080    -1.3920 ca         1 KTP      -0.099000
     28 HC1          2.1840     0.8850    -0.5110 hc         1 KTP       0.063700
     29 HC4          2.7890     0.2920     4.0510 ha         1 KTP       0.147000
     30 HC6          3.3460     1.5360     6.1220 ha         1 KTP       0.119000
     31 HC7          3.4320     3.6590     7.3210 ha         1 KTP       0.100000
     32 HC8          2.9370     5.7760     6.1720 ha         1 KTP       0.099000
     33 HC9          2.3450     5.8060     3.8050 ha         1 KTP       0.116000
     34 HC11         1.9430     4.5820     1.6990 ha         1 KTP       0.121000
     35 HC12         1.8490     2.4800     0.4800 ha         1 KTP       0.175000
     36 HC13         0.6030    -2.3690    -0.2480 ha         1 KTP       0.233000
     37 HC16         4.0520     0.8310    -0.8350 ha         1 KTP       0.137000
     38 HC17         6.2180     0.7950    -1.9580 ha         1 KTP       0.098000
     39 HC18         7.0080    -1.2310    -3.1100 ha         1 KTP       0.090000
     40 HC19         5.6460    -3.2540    -3.1580 ha         1 KTP       0.100000
     41 HC21         3.5580    -4.4300    -2.5220 ha         1 KTP       0.093000
     42 HC22         1.3930    -4.3940    -1.4000 ha         1 KTP       0.107000
@<TRIPOS>BOND
     1     1     2 1
     2     1     4 1
     3     1     6 1
     4     1     7 1
     5     3     5 2
     6     4     5 1
     7     4    19 1
     8     4    28 1
     9     5     8 1
    10     8     9 ar
    11     8    17 ar
    12     9    10 ar
    13     9    29 1
    14    10    11 ar
    15    10    15 ar
    16    11    12 ar
    17    11    30 1
    18    12    13 ar
    19    12    31 1
    20    13    14 ar
    21    13    32 1
    22    14    15 ar
    23    14    33 1
    24    15    16 ar
    25    16    17 ar
    26    16    34 1
    27    17    35 1
    28    18    19 ar
    29    18    27 ar
    30    18    36 1
    31    19    20 ar
    32    20    21 ar
    33    20    25 ar
    34    21    22 ar
    35    21    37 1
    36    22    23 ar
    37    22    38 1
    38    23    24 ar
    39    23    39 1
    40    24    25 ar
    41    24    40 1
    42    25    26 ar
    43    26    27 ar
    44    26    41 1
    45    27    42 1
@<TRIPOS>SUBSTRUCTURE
     1 KTP         1 TEMP              0 ****  ****    0 ROOT
