@<TRIPOS>MOLECULE
KTP
   42    44     1     0     0
SMALL
bcc


@<TRIPOS>ATOM
      1 P1      -1296.3000  773.5360 -946.3760 p3        1 KTP      2.361000
      2 O1      -1297.1820  773.0210 -945.3140 o         1 KTP     -1.120000
      3 O2        139.2050  -81.6530  103.1330 o         1 KTP     -0.444000
      4 C1        139.9900  -81.7170  100.8590 c2        1 KTP     -0.475000
      5 C2        139.2390  -81.2280  101.9500 c2        1 KTP      0.299000
      6 O3      -1296.2170  772.8350 -947.6700 o         1 KTP     -1.120000
      7 O4      -1295.5000  774.7520 -946.1440 o         1 KTP     -1.120000
      8 C3        138.3900  -80.0250  101.6370 ca        1 KTP     -0.077000
      9 C4        138.3360  -78.9680  102.5200 ca        1 KTP     -0.107000
     10 C5        137.5450  -77.8230  102.2410 ca        1 KTP     -0.040000
     11 C6        137.4850  -76.7190  103.1350 ca        1 KTP     -0.110000
     12 C7        136.7110  -75.6230  102.8430 ca        1 KTP     -0.151000
     13 C8        135.9590  -75.5770  101.6440 ca        1 KTP     -0.148000
     14 C9        135.9980  -76.6300  100.7630 ca        1 KTP     -0.119000
     15 C10       136.7900  -77.7770  101.0400 ca        1 KTP     -0.042000
     16 C11       136.8470  -78.8840  100.1500 ca        1 KTP     -0.153000
     17 C12       137.6260  -79.9760  100.4410 ca        1 KTP     -0.092000
     18 C13       141.0300  -83.6290  102.0070 ca        1 KTP     -0.255000
     19 C14       140.8500  -82.8290  100.8600 ca        1 KTP      0.143000
     20 C15       141.5850  -83.2060   99.6700 ca        1 KTP     -0.097000
     21 C16       141.4990  -82.4780   98.4560 ca        1 KTP     -0.074000
     22 C17       142.2020  -82.8510   97.3320 ca        1 KTP     -0.209000
     23 C18       143.0410  -83.9860   97.3660 ca        1 KTP     -0.132000
     24 C19       143.1550  -84.7150   98.5220 ca        1 KTP     -0.159000
     25 C20       142.4370  -84.3490   99.6980 ca        1 KTP      0.016000
     26 C21       142.5710  -85.1100  100.8780 ca        1 KTP     -0.271000
     27 C22       141.8690  -84.7370  102.0100 ca        1 KTP     -0.065000
     28 HC1       139.8890  -81.1420   99.9300 ha        1 KTP      0.097000
     29 HC4       138.9070  -79.0160  103.4610 ha        1 KTP      0.146000
     30 HC6       138.0720  -76.7650  104.0640 ha        1 KTP      0.127000
     31 HC7       136.6640  -74.7690  103.5340 ha        1 KTP      0.116000
     32 HC8       135.3480  -74.6890  101.4320 ha        1 KTP      0.114000
     33 HC9       135.4170  -76.6040   99.8290 ha        1 KTP      0.119000
     34 HC11      136.2530  -78.8460   99.2250 ha        1 KTP      0.117000
     35 HC12      137.6720  -80.8360   99.7540 ha        1 KTP      0.145000
     36 HC13      140.4850  -83.3610  102.9260 ha        1 KTP      0.157000
     37 HC16      140.8560  -81.5870   98.4020 ha        1 KTP      0.123000
     38 HC17      142.1190  -82.2710   96.4040 ha        1 KTP      0.104000
     39 HC18      143.5960  -84.2720   96.4620 ha        1 KTP      0.100000
     40 HC19      143.8050  -85.6000   98.5650 ha        1 KTP      0.107000
     41 HC21      143.2310  -85.9860  100.8830 ha        1 KTP      0.100000
     42 HC22      141.9720  -85.3280  102.9330 ha        1 KTP      0.095000
@<TRIPOS>BOND
     1    1    2 1   
     2    1    6 1   
     3    1    7 1   
     4    3    5 1   
     5    4    5 1   
     6    4   19 1   
     7    4   28 1   
     8    5    8 1   
     9    8    9 1   
    10    8   17 1   
    11    9   10 1   
    12    9   29 1   
    13   10   11 1   
    14   10   15 1   
    15   11   12 1   
    16   11   30 1   
    17   12   13 1   
    18   12   31 1   
    19   13   14 1   
    20   13   32 1   
    21   14   15 1   
    22   14   33 1   
    23   15   16 1   
    24   16   17 1   
    25   16   34 1   
    26   17   35 1   
    27   18   19 1   
    28   18   27 1   
    29   18   36 1   
    30   19   20 1   
    31   20   21 1   
    32   20   25 1   
    33   21   22 1   
    34   21   37 1   
    35   22   23 1   
    36   22   38 1   
    37   23   24 1   
    38   23   39 1   
    39   24   25 1   
    40   24   40 1   
    41   25   26 1   
    42   26   27 1   
    43   26   41 1   
    44   27   42 1   
@<TRIPOS>SUBSTRUCTURE
     1 KTP         1 TEMP              0 ****  ****    0 ROOT
