@<TRIPOS>MOLECULE
KTR
   31    32     1     0     0
SMALL
bcc


@<TRIPOS>ATOM
      1 O3          0.3050    1.8790   -1.6590 o         1 KTR     -0.807300
      2 C4          4.3330    0.6680   -0.9310 c1        1 KTR     -0.049900
      3 C5          3.0670    0.6540   -0.9320 c1        1 KTR     -0.073900
      4 C6          3.0530   -2.0330   -0.5500 c3        1 KTR      0.165800
      5 N1          4.1890   -2.0600   -1.4570 n3        1 KTR     -0.822200
      6 C7          1.7700   -1.3110   -0.9990 c3        1 KTR     -0.074200
      7 C8          1.8390    0.1900   -0.9390 ce        1 KTR     -0.083500
      8 C9          0.5150    0.9380   -0.8520 c         1 KTR      0.913800
      9 C10         7.8190   -2.3230   -1.0810 ce        1 KTR     -0.222500
     10 C11         8.1410   -1.7620    0.2840 c3        1 KTR     -0.019000
     11 C12         9.6160   -1.4640    0.3810 c2        1 KTR     -0.156200
     12 C13        10.5570   -2.0600   -0.3850 ce        1 KTR     -0.143000
     13 C14        10.1160   -3.1990   -1.2090 ce        1 KTR     -0.186100
     14 C15         8.8340   -3.0600   -1.5220 c1        1 KTR      0.052200
     15 O1          6.5610   -2.0180   -3.0640 o         1 KTR     -0.513100
     16 C2          5.4320   -1.4530   -0.9830 c3        1 KTR      0.144700
     17 C3          5.4990    0.0710   -0.9520 c2        1 KTR     -0.290300
     18 O2         -0.2930    0.5310    0.0290 o         1 KTR     -0.807300
     19 H2          5.5870   -1.8210    0.0770 h1        1 KTR      0.055700
     20 H3          3.9480   -1.6760   -2.3520 hn        1 KTR      0.378800
     21 H4          3.3500   -1.6180    0.4540 h1        1 KTR      0.037700
     22 H5          2.7780   -3.1190   -0.3990 h1        1 KTR      0.037700
     23 H6          0.9320   -1.6310   -0.3210 hc        1 KTR      0.075700
     24 H7          1.4990   -1.6070   -2.0470 hc        1 KTR      0.075700
     25 H8          7.5640   -0.8030    0.4000 hc        1 KTR      0.083700
     26 H9          7.8470   -2.4430    1.1260 hc        1 KTR      0.083700
     27 H10         9.8860   -0.7200    1.1450 ha        1 KTR      0.131000
     28 H11        11.6230   -1.8110   -0.3430 ha        1 KTR      0.134000
     29 H12        10.7660   -4.0580   -1.3780 ha        1 KTR      0.154000
     30 H13         6.4820    0.5470   -0.9510 ha        1 KTR      0.128000
     31 C1          6.6120   -1.9400   -1.8330 c         1 KTR      0.595300
@<TRIPOS>BOND
     1    1    8 1   
     2    2    3 2   
     3    2   17 2   
     4    3    7 2   
     5    4    5 1   
     6    4    6 1   
     7    4   21 1   
     8    4   22 1   
     9    5   16 1   
    10    5   20 1   
    11    6    7 1   
    12    6   23 1   
    13    6   24 1   
    14    7    8 1   
    15    8   18 1   
    16    9   10 1   
    17    9   14 2   
    18    9   31 1   
    19   10   11 1   
    20   10   25 1   
    21   10   26 1   
    22   11   12 2   
    23   11   27 1   
    24   12   13 1   
    25   12   28 1   
    26   13   14 2   
    27   13   29 1   
    28   15   31 2   
    29   16   17 1   
    30   16   19 1   
    31   16   31 1   
    32   17   30 1   
@<TRIPOS>SUBSTRUCTURE
     1 KTR         1 TEMP              0 ****  ****    0 ROOT
