@<TRIPOS>MOLECULE
molecule
   31    33     1     0     0
SMALL
bcc


@<TRIPOS>ATOM
      1 O3           0.0000     0.0000     0.0000 o          1 KTR      -0.832300
      2 C4           4.6060     0.8360    -0.7050 cc         1 KTR      -0.214000
      3 C5           3.5910     0.0010    -1.0550 cd         1 KTR      -0.016600
      4 C6           3.0250    -2.1880    -1.6160 c3         1 KTR       0.044300
      5 N1           4.0910    -1.2430    -1.2410 na         1 KTR      -0.025100
      6 C7           1.8400    -1.3130    -2.0780 c3         1 KTR      -0.086400
      7 C8           2.0960     0.0010    -1.3060 c3         1 KTR      -0.123400
      8 C9           1.3420     0.0000     0.0000 c          1 KTR       0.894600
      9 C10          7.7880    -2.1770    -0.6910 ca         1 KTR      -0.131600
     10 C11          8.1290    -1.2450     0.2900 ca         1 KTR      -0.084500
     11 C12          9.4450    -1.1050     0.6770 ca         1 KTR      -0.155000
     12 C13         10.4280    -1.8860     0.0950 ca         1 KTR      -0.121000
     13 C14         10.0970    -2.8130    -0.8780 ca         1 KTR      -0.155000
     14 C15          8.7840    -2.9640    -1.2740 ca         1 KTR      -0.084500
     15 O1           5.9860    -3.4110    -1.5270 o          1 KTR      -0.571100
     16 C2           5.4530    -1.2060    -1.0100 cd         1 KTR      -0.227900
     17 C3           5.7850     0.0910    -0.6790 cc         1 KTR      -0.157000
     18 O2           1.9460     0.0000     1.0470 o          1 KTR      -0.832300
     19 H2           4.5150     1.8950    -0.4920 ha         1 KTR       0.142000
     20 H3           3.3660    -2.7850    -2.4530 h1         1 KTR       0.062700
     21 H4           2.7260    -2.7460    -0.7370 h1         1 KTR       0.062700
     22 H5           0.9110    -1.7560    -1.7390 hc         1 KTR       0.062200
     23 H6           1.9210    -1.1280    -3.1420 hc         1 KTR       0.062200
     24 H7           1.8160     0.8540    -1.9120 hc         1 KTR       0.063700
     25 H8           7.3510    -0.6940     0.8060 ha         1 KTR       0.152500
     26 H9           9.7100    -0.3830     1.4400 ha         1 KTR       0.123500
     27 H10         11.4600    -1.7720     0.4020 ha         1 KTR       0.117000
     28 H11         10.8710    -3.4210    -1.3310 ha         1 KTR       0.123500
     29 H12          8.6880    -3.7150    -2.0490 ha         1 KTR       0.152500
     30 H13          6.7890     0.4910    -0.6000 ha         1 KTR       0.136000
     31 C1           6.3780    -2.3380    -1.1050 c          1 KTR       0.618300
@<TRIPOS>BOND
     1    11    12 ar
     2    11    10 ar
     3    12    13 ar
     4    10     9 ar
     5    13    14 ar
     6    17     2 1
     7    17    16 2
     8     9    14 ar
     9     9    31 1
    10     2     3 2
    11    16    31 1
    12    16     5 1
    13    31    15 2
    14     3     5 1
    15     3     7 1
    16     5     4 1
    17    18     8 1
    18     7     8 1
    19     7     6 1
    20     8     1 1
    21     4     6 1
    22     2    19 1
    23     4    20 1
    24     4    21 1
    25     6    22 1
    26     6    23 1
    27     7    24 1
    28    10    25 1
    29    11    26 1
    30    12    27 1
    31    13    28 1
    32    14    29 1
    33    17    30 1
@<TRIPOS>SUBSTRUCTURE
     1 KTR         1 TEMP              0 ****  ****    0 ROOT
