@<TRIPOS>MOLECULE
KTZ
   44    47     1     0     0
SMALL
bcc


@<TRIPOS>ATOM
      1 CAL          0.0000     0.0000     0.0000 ca         1 KTZ      -0.085500
      2 CAH          1.3790     0.0000     0.0000 ca         1 KTZ      -0.105500
      3 CAE          2.0740     0.0000     1.1970 ca         1 KTZ      -0.105000
      4 CAI          1.3910     0.0010     2.4000 ca         1 KTZ      -0.105500
      5 CAM          0.0100     0.0010     2.4130 ca         1 KTZ      -0.085500
      6 CAS         -0.6950     0.0000     1.2100 ca         1 KTZ      -0.000800
      7 CAV         -2.1750     0.0010     1.2170 cc         1 KTZ      -0.025400
      8 C5          -3.0540    -1.0620     1.7180 ca         1 KTZ      -0.313400
      9 C6          -2.8430    -2.3200     2.3040 ca         1 KTZ       0.582200
     10 NAY         -1.5630    -2.7950     2.5200 nh         1 KTZ      -0.516300
     11 CAB         -1.3420    -3.0880     3.9420 c3         1 KTZ       0.183100
     12 CAA         -1.2930    -3.9780     1.6910 c3         1 KTZ       0.183100
     13 N1          -3.9040    -3.0440     2.6470 nb         1 KTZ      -0.685000
     14 C2          -5.1340    -2.5910     2.4420 ca         1 KTZ       0.725900
     15 NAC         -6.2060    -3.3830     2.8170 nv         1 KTZ      -0.637500
     16 N3          -5.3750    -1.4120     1.8930 nb         1 KTZ      -0.632000
     17 C4          -4.3730    -0.6190     1.5170 ca         1 KTZ       0.256800
     18 NAP         -4.3160     0.6210     0.9380 na         1 KTZ       0.282900
     19 CAT         -3.0040     1.0040     0.7590 cd         1 KTZ      -0.188300
     20 CAR         -2.5580     2.2820     0.1690 ca         1 KTZ      -0.026800
     21 CAJ         -3.1650     2.7680    -0.9920 ca         1 KTZ      -0.090500
     22 CAF         -2.7430     3.9620    -1.5380 ca         1 KTZ      -0.097500
     23 CAD         -1.7210     4.6790    -0.9370 ca         1 KTZ      -0.096000
     24 CAG         -1.1170     4.2030     0.2130 ca         1 KTZ      -0.097500
     25 CAK         -1.5320     3.0130     0.7730 ca         1 KTZ      -0.090500
     26 HAL         -0.5430    -0.0000    -0.9380 ha         1 KTZ       0.107500
     27 HAH          1.9200    -0.0010    -0.9390 ha         1 KTZ       0.100500
     28 HAE          3.1570     0.0000     1.1920 ha         1 KTZ       0.099000
     29 HAI          1.9410     0.0020     3.3340 ha         1 KTZ       0.100500
     30 HAM         -0.5230     0.0020     3.3560 ha         1 KTZ       0.107500
     31 HAB1        -0.2810    -3.2010     4.1280 h1         1 KTZ       0.007033
     32 HAB2        -1.8540    -4.0060     4.2060 h1         1 KTZ       0.007033
     33 HAB3        -1.7290    -2.2740     4.5430 h1         1 KTZ       0.007033
     34 HAA1        -1.9090    -4.8030     2.0270 h1         1 KTZ       0.007033
     35 HAA2        -1.5230    -3.7540     0.6560 h1         1 KTZ       0.007033
     36 HAA3        -0.2480    -4.2490     1.7780 h1         1 KTZ       0.007033
     37 HAC1        -6.5890    -3.3030     3.7380 hn         1 KTZ       0.276800
     38 HAC2        -6.6070    -4.0250     2.1620 hn         1 KTZ       0.276800
     39 HAP         -5.1120     1.1730     0.6870 hn         1 KTZ       0.122700
     40 HAJ         -3.9640     2.2080    -1.4620 ha         1 KTZ       0.111500
     41 HAK         -1.0580     2.6420     1.6730 ha         1 KTZ       0.111500
     42 HAF         -3.2120     4.3400    -2.4380 ha         1 KTZ       0.105000
     43 HAD         -1.3920     5.6150    -1.3710 ha         1 KTZ       0.103000
     44 HAG         -0.3200     4.7690     0.6790 ha         1 KTZ       0.105000
@<TRIPOS>BOND
     1     1     2 ar  
     2     1     6 ar  
     3     1    26 1   
     4     2     3 ar  
     5     2    27 1   
     6     3     4 ar  
     7     3    28 1   
     8     4     5 ar  
     9     4    29 1   
    10     5     6 ar  
    11     5    30 1   
    12     6     7 1   
    13     7     8 1   
    14     7    19 2   
    15     8     9 ar  
    16     8    17 ar  
    17     9    10 1   
    18     9    13 ar  
    19    10    11 1   
    20    10    12 1   
    21    11    31 1   
    22    11    32 1   
    23    11    33 1   
    24    12    34 1   
    25    12    35 1   
    26    12    36 1   
    27    13    14 ar  
    28    14    15 1   
    29    14    16 ar  
    30    15    37 1   
    31    15    38 1   
    32    16    17 ar  
    33    17    18 1   
    34    18    19 1   
    35    18    39 1   
    36    19    20 1   
    37    20    21 ar  
    38    20    25 ar  
    39    21    22 ar  
    40    21    40 1   
    41    22    23 ar  
    42    22    42 1   
    43    23    24 ar  
    44    23    43 1   
    45    24    25 ar  
    46    24    44 1   
    47    25    41 1   
@<TRIPOS>SUBSTRUCTURE
     1 KTZ         1 TEMP              0 ****  ****    0 ROOT
