@<TRIPOS>MOLECULE
molecule
   58    61     1     0     0
SMALL
bcc


@<TRIPOS>ATOM
      1 C1           0.0000     0.0000     0.0000 ca         1 KU0      -0.071400
      2 C10          8.4440     5.9630    -5.6370 ca         1 KU0      -0.299500
      3 C11          9.6460     5.4800    -6.1180 ca         1 KU0      -0.029000
      4 C12         10.8130     5.7000    -5.4100 ca         1 KU0      -0.150000
      5 C13         10.7770     6.4040    -4.2200 ca         1 KU0      -0.074000
      6 C14          9.5750     6.8870    -3.7390 ca         1 KU0      -0.150000
      7 C15          8.4090     6.6660    -4.4470 ca         1 KU0      -0.029000
      8 C16          1.4960     0.3390    -6.3760 cc         1 KU0       0.016900
      9 C17          0.9070    -0.8090    -5.6750 c          1 KU0       0.653700
     10 C18          3.6830    -2.8150    -3.2030 c3         1 KU0      -0.096400
     11 C19          3.4280    -3.4090    -1.7920 c3         1 KU0      -0.095400
     12 C2           1.4000     0.0000     0.0000 ca         1 KU0      -0.090600
     13 C20          2.2770    -2.5110    -1.2790 c3         1 KU0       0.088000
     14 C21          2.0600     0.0000     1.2340 ca         1 KU0      -0.071400
     15 C22          1.3090     0.0010     2.3950 ca         1 KU0       0.431200
     16 C23         -0.6690     0.0060     1.2100 ca         1 KU0       0.431200
     17 C3           2.1610    -0.0020    -1.2700 c          1 KU0       0.692700
     18 C4           3.4330    -1.3060    -2.9970 c3         1 KU0       0.086400
     19 C5           2.7280    -0.7330    -4.1990 cd         1 KU0       0.471900
     20 C6           2.6930     0.8450    -5.8930 cc         1 KU0       0.085400
     21 C7           3.3370     1.9990    -6.5600 c          1 KU0       0.687300
     22 C8           5.0160     3.7640    -6.6200 c3         1 KU0       0.139000
     23 C9           6.3210     4.1150    -5.9020 c3         1 KU0      -0.234600
     24 N1           2.5850    -1.1670    -1.8000 n          1 KU0      -0.494800
     25 N2           3.2620     0.2800    -4.8130 nc         1 KU0      -0.624300
     26 N3           4.4420     2.5560    -6.0230 ns         1 KU0      -0.569900
     27 N4           1.5630    -1.2990    -4.6010 ns         1 KU0      -0.439400
     28 N5          -0.0080     0.0010     2.3500 nb         1 KU0      -0.655000
     29 O1           2.4030     1.0470    -1.8340 o          1 KU0      -0.550100
     30 O2           2.8720     2.4440    -7.5910 o          1 KU0      -0.573100
     31 O3           6.1110     6.7630    -6.1590 o          1 KU0      -0.610800
     32 O4           7.3900     5.5420    -7.8880 o          1 KU0      -0.610800
     33 O6          -0.1410    -1.3040    -6.0520 o          1 KU0      -0.622500
     34 S1           6.9580     5.6890    -6.5420 sy         1 KU0       1.201300
     35 Cl1         -0.8810    -0.0010    -1.4950 cl         1 KU0      -0.066400
     36 Cl2          3.7940    -0.0010     1.3070 cl         1 KU0      -0.066400
     37 H1           9.6740     4.9290    -7.0500 ha         1 KU0       0.151500
     38 H2          11.7550     5.3210    -5.7870 ha         1 KU0       0.138000
     39 H3          11.6920     6.5760    -3.6650 ha         1 KU0       0.134000
     40 H4           9.5470     7.4390    -2.8070 ha         1 KU0       0.138000
     41 H5           7.4670     7.0450    -4.0690 ha         1 KU0       0.151500
     42 H6           2.9820    -3.2230    -3.9210 hc         1 KU0       0.067200
     43 H7           4.7060    -2.9920    -3.5120 hc         1 KU0       0.067200
     44 H8           4.3060    -3.3060    -1.1660 hc         1 KU0       0.066700
     45 H9           3.1100    -4.4420    -1.8610 hc         1 KU0       0.066700
     46 H10          1.3280    -2.8560    -1.6710 h1         1 KU0       0.055200
     47 H11          2.2630    -2.5000    -0.1960 h1         1 KU0       0.055200
     48 H12          1.8100    -0.0010     3.3560 h4         1 KU0       0.047100
     49 H13         -1.7530     0.0060     1.2210 h4         1 KU0       0.047100
     50 H14          4.3760    -0.7960    -2.8390 h1         1 KU0       0.103700
     51 H15          5.2170     3.5880    -7.6700 h1         1 KU0       0.066700
     52 H16          4.3160     4.5840    -6.5190 h1         1 KU0       0.066700
     53 H17          6.1360     4.2060    -4.8390 h1         1 KU0       0.103200
     54 H18          7.0510     3.3330    -6.0760 h1         1 KU0       0.103200
     55 H19          4.8860     2.1270    -5.2350 hn         1 KU0       0.335500
     56 H20          1.1890    -2.0810    -4.1000 hn         1 KU0       0.340500
     57 H21          0.0350     1.1940    -7.2230 ho         1 KU0       0.432000
     58 O5           0.8920     0.8830    -7.4630 oh         1 KU0      -0.443100
@<TRIPOS>BOND
     1    29    17 2
     2    36    14 1
     3    17    12 1
     4    17    24 1
     5    14    12 ar
     6    14    15 ar
     7    12     1 ar
     8    13    24 1
     9    13    11 1
    10    15    28 ar
    11     1    35 1
    12     1    16 ar
    13    24    18 1
    14    22    26 1
    15    22    23 1
    16    28    16 ar
    17    26    21 1
    18    31    34 2
    19    11    10 1
    20    23    34 1
    21    21    30 2
    22    21    20 1
    23    18    10 1
    24    18    19 1
    25    25    20 1
    26    25    19 2
    27    20     8 2
    28    19    27 1
    29    34    32 2
    30    34     2 1
    31    27     9 1
    32     8    58 1
    33     8     9 1
    34     2     3 ar
    35     2     7 ar
    36     3     4 ar
    37     9    33 2
    38     4     5 ar
    39     7     6 ar
    40     5     6 ar
    41     3    37 1
    42     4    38 1
    43     5    39 1
    44     6    40 1
    45     7    41 1
    46    10    42 1
    47    10    43 1
    48    11    44 1
    49    11    45 1
    50    13    46 1
    51    13    47 1
    52    15    48 1
    53    16    49 1
    54    18    50 1
    55    22    51 1
    56    22    52 1
    57    23    53 1
    58    23    54 1
    59    26    55 1
    60    27    56 1
    61    58    57 1
@<TRIPOS>SUBSTRUCTURE
     1 KU0         1 TEMP              0 ****  ****    0 ROOT
