@<TRIPOS>MOLECULE
KU0
   58    61     1     0     0
SMALL
bcc


@<TRIPOS>ATOM
      1 C1           0.0000     0.0000     0.0000 ca         1 KU0      -0.134400
      2 C10          8.4440     5.9630    -5.6370 ca         1 KU0      -0.160500
      3 C11          9.6460     5.4800    -6.1180 ca         1 KU0       0.003500
      4 C12         10.8130     5.7000    -5.4100 ca         1 KU0      -0.132500
      5 C13         10.7770     6.4040    -4.2200 ca         1 KU0      -0.048000
      6 C14          9.5750     6.8870    -3.7390 ca         1 KU0      -0.132500
      7 C15          8.4090     6.6660    -4.4470 ca         1 KU0       0.003500
      8 C16          1.4960     0.3390    -6.3760 cc         1 KU0       0.052900
      9 C17          0.9070    -0.8090    -5.6750 c          1 KU0       0.548700
     10 C18          3.6830    -2.8150    -3.2030 c3         1 KU0      -0.038400
     11 C19          3.4280    -3.4090    -1.7920 c3         1 KU0      -0.029400
     12 C2           1.4000     0.0000     0.0000 ca         1 KU0      -0.108600
     13 C20          2.2770    -2.5110    -1.2790 c3         1 KU0       0.040000
     14 C21          2.0600     0.0000     1.2340 ca         1 KU0      -0.134400
     15 C22          1.3090     0.0010     2.3950 ca         1 KU0       0.409200
     16 C23         -0.6690     0.0060     1.2100 ca         1 KU0       0.409200
     17 C3           2.1610    -0.0020    -1.2700 c          1 KU0       0.623700
     18 C4           3.4330    -1.3060    -2.9970 c3         1 KU0       0.008400
     19 C5           2.7280    -0.7330    -4.1990 cc         1 KU0       0.238900
     20 C6           2.6930     0.8450    -5.8930 cd         1 KU0       0.003400
     21 C7           3.3370     1.9990    -6.5600 c          1 KU0       0.602300
     22 C8           5.0160     3.7640    -6.6200 c3         1 KU0       0.083000
     23 C9           6.3210     4.1150    -5.9020 c3         1 KU0      -0.021600
     24 N1           2.5850    -1.1670    -1.8000 n          1 KU0      -0.167800
     25 N2           3.2620     0.2800    -4.8130 nd         1 KU0      -0.487300
     26 N3           4.4420     2.5560    -6.0230 ns         1 KU0      -0.193900
     27 N4           1.5630    -1.2990    -4.6010 ns         1 KU0       0.035600
     28 N5          -0.0080     0.0010     2.3500 nb         1 KU0      -0.546000
     29 O1           2.4030     1.0470    -1.8340 o          1 KU0      -0.598100
     30 O2           2.8720     2.4440    -7.5910 o          1 KU0      -0.621100
     31 O3           6.1110     6.7630    -6.1590 o          1 KU0      -0.580800
     32 O4           7.3900     5.5420    -7.8880 o          1 KU0      -0.580800
     33 O6          -0.1410    -1.3040    -6.0520 o          1 KU0      -0.666500
     34 S1           6.9580     5.6890    -6.5420 sy         1 KU0       0.884300
     35 Cl1         -0.8810    -0.0010    -1.4950 cl         1 KU0       0.020600
     36 Cl2          3.7940    -0.0010     1.3070 cl         1 KU0       0.020600
     37 H1           9.6740     4.9290    -7.0500 ha         1 KU0       0.123000
     38 H2          11.7550     5.3210    -5.7870 ha         1 KU0       0.109000
     39 H3          11.6920     6.5760    -3.6650 ha         1 KU0       0.102000
     40 H4           9.5470     7.4390    -2.8070 ha         1 KU0       0.109000
     41 H5           7.4670     7.0450    -4.0690 ha         1 KU0       0.123000
     42 H6           2.9820    -3.2230    -3.9210 hc         1 KU0       0.032200
     43 H7           4.7060    -2.9920    -3.5120 hc         1 KU0       0.032200
     44 H8           4.3060    -3.3060    -1.1660 hc         1 KU0       0.033200
     45 H9           3.1100    -4.4420    -1.8610 hc         1 KU0       0.033200
     46 H10          1.3280    -2.8560    -1.6710 h1         1 KU0       0.025700
     47 H11          2.2630    -2.5000    -0.1960 h1         1 KU0       0.025700
     48 H12          1.8100    -0.0010     3.3560 h4         1 KU0      -0.003400
     49 H13         -1.7530     0.0060     1.2210 h4         1 KU0      -0.003400
     50 H14          4.3760    -0.7960    -2.8390 h1         1 KU0       0.065700
     51 H15          5.2170     3.5880    -7.6700 h1         1 KU0       0.039700
     52 H16          4.3160     4.5840    -6.5190 h1         1 KU0       0.039700
     53 H17          6.1360     4.2060    -4.8390 h1         1 KU0       0.068200
     54 H18          7.0510     3.3330    -6.0760 h1         1 KU0       0.068200
     55 H19          4.8860     2.1270    -5.2350 hn         1 KU0       0.192500
     56 H20          1.1890    -2.0810    -4.1000 hn         1 KU0       0.183500
     57 H21          0.0350     1.1940    -7.2230 ho         1 KU0       0.412000
     58 O5           0.8920     0.8830    -7.4630 oh         1 KU0      -0.417100
@<TRIPOS>BOND
     1     1    12 ar  
     2     1    16 ar  
     3     1    35 1   
     4     2     3 ar  
     5     2     7 ar  
     6     2    34 1   
     7     3     4 ar  
     8     3    37 1   
     9     4     5 ar  
    10     4    38 1   
    11     5     6 ar  
    12     5    39 1   
    13     6     7 ar  
    14     6    40 1   
    15     7    41 1   
    16     8     9 1   
    17     8    20 2   
    18     8    58 1   
    19     9    27 1   
    20     9    33 2   
    21    10    11 1   
    22    10    18 1   
    23    10    42 1   
    24    10    43 1   
    25    11    13 1   
    26    11    44 1   
    27    11    45 1   
    28    12    14 ar  
    29    12    17 1   
    30    13    24 1   
    31    13    46 1   
    32    13    47 1   
    33    14    15 ar  
    34    14    36 1   
    35    15    28 ar  
    36    15    48 1   
    37    16    28 ar  
    38    16    49 1   
    39    17    24 1   
    40    17    29 2   
    41    18    19 1   
    42    18    24 1   
    43    18    50 1   
    44    19    25 2   
    45    19    27 1   
    46    20    21 1   
    47    20    25 1   
    48    21    26 1   
    49    21    30 2   
    50    22    23 1   
    51    22    26 1   
    52    22    51 1   
    53    22    52 1   
    54    23    34 1   
    55    23    53 1   
    56    23    54 1   
    57    26    55 1   
    58    27    56 1   
    59    31    34 2   
    60    32    34 2   
    61    57    58 1   
@<TRIPOS>SUBSTRUCTURE
     1 KU0         1 TEMP              0 ****  ****    0 ROOT
