@<TRIPOS>MOLECULE
molecule
   61    64     1     0     0
SMALL
bcc


@<TRIPOS>ATOM
      1 C10          0.0000     0.0000     0.0000 c          1 KU2       0.711100
      2 C13         -2.1150     6.4950    -4.3330 c3         1 KU2       0.120400
      3 C14          6.5980    -0.6530    -1.0770 ca         1 KU2      -0.134000
      4 C17          3.8570    -0.5080    -1.4320 ca         1 KU2       0.019900
      5 C18          4.4030    -0.3680    -0.1620 ca         1 KU2      -0.150000
      6 C19          5.7710    -0.4460     0.0130 ca         1 KU2      -0.110000
      7 C20         -3.9680    11.0760    -4.3480 ca         1 KU2      -0.166000
      8 C21         -3.4950    10.8830    -3.0630 ca         1 KU2      -0.091500
      9 C22         -2.9300     9.6740    -2.7070 ca         1 KU2      -0.189000
     10 C24         -3.3120     8.8470    -4.9290 ca         1 KU2      -0.189000
     11 C25         -3.8760    10.0590    -5.2800 ca         1 KU2      -0.091500
     12 C1          -2.7940     1.1730     0.4670 cc         1 KU2       0.457900
     13 C11          1.5070     0.0000     0.0000 c3         1 KU2      -0.106300
     14 C12         -1.3680     5.2780    -3.7830 c3         1 KU2       0.119000
     15 C15          6.0600    -0.7830    -2.3440 ca         1 KU2      -0.104000
     16 C16          4.6920    -0.7120    -2.5250 ca         1 KU2       0.037400
     17 C2          -2.5770     2.8160    -1.1530 cc         1 KU2       0.121400
     18 C23         -2.8370     8.6520    -3.6400 ca         1 KU2       0.141100
     19 C3          -3.9340     3.0910    -1.0930 cd         1 KU2      -0.045100
     20 C4          -4.7470     2.3140    -0.1490 c          1 KU2       0.660700
     21 C5          -1.7030     3.5650    -2.0830 c          1 KU2       0.678300
     22 C6          -1.1080     0.0000     3.5020 c3         1 KU2      -0.093400
     23 C7          -2.4440     0.3640     2.8030 c3         1 KU2      -0.101400
     24 C8          -2.1340     0.1140     1.3120 c3         1 KU2       0.092400
     25 C9          -0.0700     0.4890     2.4620 c3         1 KU2       0.094000
     26 N1          -2.0600     1.8580    -0.3610 nc         1 KU2      -0.563300
     27 N2          -4.1280     1.3720     0.5950 ns         1 KU2      -0.441400
     28 N3          -2.1980     4.6080    -2.7790 ns         1 KU2      -0.581900
     29 N4          -0.6740     0.1850     1.1520 n          1 KU2      -0.483800
     30 O1          -4.4910     4.0460    -1.8790 oh         1 KU2      -0.485100
     31 O2          -5.9470     2.5060    -0.0470 o          1 KU2      -0.637500
     32 O3          -0.5400     3.2390    -2.2210 o          1 KU2      -0.571100
     33 O4          -0.6070    -0.1630    -1.0370 o          1 KU2      -0.553100
     34 O5          -2.2820     7.4610    -3.2930 os         1 KU2      -0.329900
     35 S1           2.1110    -0.4170    -1.6580 ss         1 KU2      -0.106000
     36 Cl1          4.0150    -0.8880    -4.1140 cl         1 KU2      -0.088400
     37 H1          -1.5460     6.9320    -5.1440 h1         1 KU2       0.044200
     38 H2          -3.0880     6.1870    -4.6990 h1         1 KU2       0.044200
     39 H3           7.6710    -0.7120    -0.9370 ha         1 KU2       0.135000
     40 H4           3.7560    -0.2080     0.6910 ha         1 KU2       0.130000
     41 H5           6.1970    -0.3410     1.0030 ha         1 KU2       0.131000
     42 H7          -3.5680    11.6820    -2.3340 ha         1 KU2       0.131500
     43 H8          -2.5600     9.5250    -1.7000 ha         1 KU2       0.138500
     44 H9          -3.2410     8.0500    -5.6590 ha         1 KU2       0.138500
     45 H10         -4.2470    10.2110    -6.2860 ha         1 KU2       0.131500
     46 H11          1.8680     0.9820     0.2800 h1         1 KU2       0.080200
     47 H12          1.8680    -0.7330     0.7110 h1         1 KU2       0.080200
     48 H13         -1.1550     4.5900    -4.5920 h1         1 KU2       0.066200
     49 H14         -0.4400     5.6000    -3.3280 h1         1 KU2       0.066200
     50 H15          6.7110    -0.9430    -3.1940 ha         1 KU2       0.145000
     51 H16         -1.0300    -1.0700     3.6510 hc         1 KU2       0.062200
     52 H17         -1.0020     0.5380     4.4360 hc         1 KU2       0.062200
     53 H18         -3.2410    -0.2870     3.1420 hc         1 KU2       0.062700
     54 H19         -2.6920     1.4050     2.9720 hc         1 KU2       0.062700
     55 H20         -2.4880    -0.8680     1.0240 h1         1 KU2       0.083700
     56 H21          0.8630    -0.0500     2.5800 h1         1 KU2       0.052700
     57 H22          0.0890     1.5560     2.5630 h1         1 KU2       0.052700
     58 H23         -4.6540     0.8250     1.2480 hn         1 KU2       0.340500
     59 H24         -3.1140     4.9560    -2.5760 hn         1 KU2       0.347500
     60 H25         -5.3070     3.7280    -2.2280 ho         1 KU2       0.443000
     61 H6          -4.4110    12.0250    -4.6250 ha         1 KU2       0.130000
@<TRIPOS>BOND
     1     7    11 ar
     2     7     8 ar
     3    11    10 ar
     4     8     9 ar
     5    10    18 ar
     6     9    18 ar
     7    18    34 1
     8    34     2 1
     9     2    14 1
    10     5     6 ar
    11     5     4 ar
    12     6     3 ar
    13    35     4 1
    14    35    13 1
    15    33     1 2
    16     4    16 ar
    17     3    15 ar
    18    14    28 1
    19     1    13 1
    20     1    29 1
    21    16    15 ar
    22    16    36 1
    23    28    21 1
    24    29    25 1
    25    29    24 1
    26    25    22 1
    27    21    32 2
    28    21    17 1
    29    26    17 1
    30    26    12 2
    31    17    19 2
    32    24    12 1
    33    24    23 1
    34    12    27 1
    35    22    23 1
    36    19    30 1
    37    19    20 1
    38    27    20 1
    39    20    31 2
    40     2    37 1
    41     2    38 1
    42     3    39 1
    43     5    40 1
    44     6    41 1
    45     7    61 1
    46     8    42 1
    47     9    43 1
    48    10    44 1
    49    11    45 1
    50    13    46 1
    51    13    47 1
    52    14    48 1
    53    14    49 1
    54    15    50 1
    55    22    51 1
    56    22    52 1
    57    23    53 1
    58    23    54 1
    59    24    55 1
    60    25    56 1
    61    25    57 1
    62    27    58 1
    63    28    59 1
    64    30    60 1
@<TRIPOS>SUBSTRUCTURE
     1 KU2         1 TEMP              0 ****  ****    0 ROOT
