@<TRIPOS>MOLECULE
molecule
   63    66     1     0     0
SMALL
bcc


@<TRIPOS>ATOM
      1 C1           0.0000     0.0000     0.0000 c          1 KU4       0.653700
      2 C10          6.5870    -2.8000     8.2220 ca         1 KU4      -0.167000
      3 C11          6.1380    -3.7250     7.2980 ca         1 KU4      -0.091000
      4 C12          5.8760    -3.3350     6.0000 ca         1 KU4      -0.189500
      5 C13          0.0830    -0.0000     2.3420 cc         1 KU4       0.472900
      6 C14         -0.6560     0.0060     3.6560 c3         1 KU4       0.082400
      7 C16         -1.8980     3.6540     4.0270 c3         1 KU4      -0.147400
      8 C17         -1.1260     4.9640     3.8630 c3         1 KU4      -0.025100
      9 C18         -2.0760     6.1270     3.9870 ca         1 KU4      -0.081300
     10 C19         -2.6370     6.6840     2.8540 ca         1 KU4      -0.115000
     11 C2           1.4680     0.0000     0.0000 cd         1 KU4       0.010900
     12 C20         -3.5090     7.7500     2.9670 ca         1 KU4      -0.124000
     13 C21         -3.8210     8.2610     4.2130 ca         1 KU4      -0.122000
     14 C22         -3.2600     7.7040     5.3480 ca         1 KU4      -0.119000
     15 C23         -2.3910     6.6330     5.2350 ca         1 KU4       0.028400
     16 C24         -2.8800     0.8600     3.8750 c3         1 KU4       0.089000
     17 C25         -2.8730    -0.5860     4.4290 c3         1 KU4      -0.097400
     18 C26         -1.6340    -1.1860     3.7140 c3         1 KU4      -0.097400
     19 C3           2.1130     0.0000     1.2270 cc         1 KU4       0.089400
     20 C4           3.5910     0.0000     1.2930 c          1 KU4       0.687300
     21 C5           5.6710     0.0010     2.5640 c3         1 KU4       0.118000
     22 C6           6.1270    -0.2790     3.9970 c3         1 KU4       0.119400
     23 C7           6.0640    -2.0140     5.6210 ca         1 KU4       0.140100
     24 C8           6.5150    -1.0870     6.5510 ca         1 KU4      -0.189500
     25 C9           6.7750    -1.4820     7.8480 ca         1 KU4      -0.091000
     26 N1           4.2130    -0.1080     2.4860 ns         1 KU4      -0.569900
     27 N2           1.3830    -0.0000     2.3580 nc         1 KU4      -0.621300
     28 N3          -1.4580     1.2330     3.7730 n          1 KU4      -0.507800
     29 N4          -0.6340     0.0060     1.1930 ns         1 KU4      -0.439400
     30 O1          -0.6280     0.0010    -1.0460 o          1 KU4      -0.627500
     31 O2           2.1700    -0.0010    -1.1600 oh         1 KU4      -0.442100
     32 O3           5.8080    -1.6280     4.3440 os         1 KU4      -0.329900
     33 O4           4.2450     0.0980     0.2740 o          1 KU4      -0.581100
     34 O5           0.2100     2.6850     3.6000 o          1 KU4      -0.580100
     35 Cl1         -1.6920     5.9300     6.6600 cl         1 KU4      -0.109400
     36 H2           5.9910    -4.7570     7.5940 ha         1 KU4       0.131500
     37 H3           5.5240    -4.0610     5.2760 ha         1 KU4       0.138500
     38 H4           0.0450    -0.0540     4.4800 h1         1 KU4       0.103700
     39 H5          -2.7120     3.6230     3.3130 hc         1 KU4       0.066700
     40 H6          -2.2980     3.5940     5.0320 hc         1 KU4       0.066700
     41 H7          -0.6540     4.9850     2.8880 hc         1 KU4       0.074200
     42 H8          -0.3670     5.0350     4.6330 hc         1 KU4       0.074200
     43 H9          -2.3940     6.2850     1.8770 ha         1 KU4       0.140000
     44 H10         -3.9490     8.1860     2.0780 ha         1 KU4       0.135000
     45 H11         -4.5030     9.0980     4.3010 ha         1 KU4       0.137000
     46 H12         -3.5050     8.1030     6.3250 ha         1 KU4       0.144000
     47 H13         -3.3940     1.5230     4.5610 h1         1 KU4       0.051200
     48 H14         -3.3450     0.8850     2.8970 h1         1 KU4       0.051200
     49 H15         -2.7370    -0.5860     5.5040 hc         1 KU4       0.064700
     50 H16         -3.7760    -1.1120     4.1440 hc         1 KU4       0.064700
     51 H17         -1.8920    -1.5160     2.7150 hc         1 KU4       0.064200
     52 H18         -1.2130    -1.9970     4.2960 hc         1 KU4       0.064200
     53 H19          5.9740     1.0010     2.2770 h1         1 KU4       0.066700
     54 H20          6.1230    -0.7200     1.8940 h1         1 KU4       0.066700
     55 H21          5.6220     0.3970     4.6760 h1         1 KU4       0.045200
     56 H22          7.1980    -0.1320     4.0710 h1         1 KU4       0.045200
     57 H23          6.6630    -0.0540     6.2580 ha         1 KU4       0.138500
     58 H24          7.1270    -0.7580     8.5730 ha         1 KU4       0.131500
     59 H25          3.6760    -0.2460     3.3190 hn         1 KU4       0.337500
     60 H26         -1.6340     0.0060     1.2270 hn         1 KU4       0.339500
     61 H27          1.9520    -0.7700    -1.6600 ho         1 KU4       0.428000
     62 C15         -0.9720     2.4900     3.7840 c          1 KU4       0.675100
     63 H1           6.7920    -3.1070     9.2400 ha         1 KU4       0.130000
@<TRIPOS>BOND
     1     2    25 ar
     2     2     3 ar
     3    25    24 ar
     4     3     4 ar
     5    24    23 ar
     6     4    23 ar
     7    23    32 1
     8    32    22 1
     9    22    21 1
    10     8     7 1
    11     8     9 1
    12    35    15 1
    13    34    62 2
    14     7    62 1
    15    21    26 1
    16     9    15 ar
    17     9    10 ar
    18    62    28 1
    19    15    14 ar
    20    10    12 ar
    21    26    20 1
    22    14    13 ar
    23    28    16 1
    24    28     6 1
    25    12    13 ar
    26    20    33 2
    27    20    19 1
    28    16    17 1
    29    27    19 1
    30    27     5 2
    31    19    11 2
    32     6     5 1
    33     6    18 1
    34     5    29 1
    35    11    31 1
    36    11     1 1
    37    29     1 1
    38    17    18 1
    39     1    30 2
    40     2    63 1
    41     3    36 1
    42     4    37 1
    43     6    38 1
    44     7    39 1
    45     7    40 1
    46     8    41 1
    47     8    42 1
    48    10    43 1
    49    12    44 1
    50    13    45 1
    51    14    46 1
    52    16    47 1
    53    16    48 1
    54    17    49 1
    55    17    50 1
    56    18    51 1
    57    18    52 1
    58    21    53 1
    59    21    54 1
    60    22    55 1
    61    22    56 1
    62    24    57 1
    63    25    58 1
    64    26    59 1
    65    29    60 1
    66    31    61 1
@<TRIPOS>SUBSTRUCTURE
     1 KU4         1 TEMP              0 ****  ****    0 ROOT
