@<TRIPOS>MOLECULE
KU4
   63    66     1     0     0
SMALL
bcc


@<TRIPOS>ATOM
      1 C1           0.0000     0.0000     0.0000 c          1 KU4       0.547700
      2 C10          6.5870    -2.8000     8.2220 ca         1 KU4      -0.145000
      3 C11          6.1380    -3.7250     7.2980 ca         1 KU4      -0.058000
      4 C12          5.8760    -3.3350     6.0000 ca         1 KU4      -0.176500
      5 C13          0.0830    -0.0000     2.3420 cc         1 KU4       0.239900
      6 C14         -0.6560     0.0060     3.6560 c3         1 KU4       0.008400
      7 C16         -1.8980     3.6540     4.0270 c3         1 KU4      -0.096400
      8 C17         -1.1260     4.9640     3.8630 c3         1 KU4       0.035900
      9 C18         -2.0760     6.1270     3.9870 ca         1 KU4      -0.091300
     10 C19         -2.6370     6.6840     2.8540 ca         1 KU4      -0.087000
     11 C2           1.4680     0.0000     0.0000 cc         1 KU4       0.045900
     12 C20         -3.5090     7.7500     2.9670 ca         1 KU4      -0.097000
     13 C21         -3.8210     8.2610     4.2130 ca         1 KU4      -0.093000
     14 C22         -3.2600     7.7040     5.3480 ca         1 KU4      -0.096000
     15 C23         -2.3910     6.6330     5.2350 ca         1 KU4      -0.032600
     16 C24         -2.8800     0.8600     3.8750 c3         1 KU4       0.044000
     17 C25         -2.8730    -0.5860     4.4290 c3         1 KU4      -0.031400
     18 C26         -1.6340    -1.1860     3.7140 c3         1 KU4      -0.038400
     19 C3           2.1130     0.0000     1.2270 cd         1 KU4       0.008400
     20 C4           3.5910     0.0000     1.2930 c          1 KU4       0.599300
     21 C5           5.6710     0.0010     2.5640 c3         1 KU4       0.047000
     22 C6           6.1270    -0.2790     3.9970 c3         1 KU4       0.186400
     23 C7           6.0640    -2.0140     5.6210 ca         1 KU4       0.151100
     24 C8           6.5150    -1.0870     6.5510 ca         1 KU4      -0.176500
     25 C9           6.7750    -1.4820     7.8480 ca         1 KU4      -0.058000
     26 N1           4.2130    -0.1080     2.4860 ns         1 KU4      -0.180900
     27 N2           1.3830    -0.0000     2.3580 nd         1 KU4      -0.485300
     28 N3          -1.4580     1.2330     3.7730 n          1 KU4      -0.185800
     29 N4          -0.6340     0.0060     1.1930 ns         1 KU4       0.038600
     30 O1          -0.6280     0.0010    -1.0460 o          1 KU4      -0.672500
     31 O2           2.1700    -0.0010    -1.1600 oh         1 KU4      -0.416100
     32 O3           5.8080    -1.6280     4.3440 os         1 KU4      -0.308900
     33 O4           4.2450     0.0980     0.2740 o          1 KU4      -0.630100
     34 O5           0.2100     2.6850     3.6000 o          1 KU4      -0.622100
     35 Cl1         -1.6920     5.9300     6.6600 cl         1 KU4      -0.025400
     36 H2           5.9910    -4.7570     7.5940 ha         1 KU4       0.101500
     37 H3           5.5240    -4.0610     5.2760 ha         1 KU4       0.118000
     38 H4           0.0450    -0.0540     4.4800 h1         1 KU4       0.066700
     39 H5          -2.7120     3.6230     3.3130 hc         1 KU4       0.034200
     40 H6          -2.2980     3.5940     5.0320 hc         1 KU4       0.034200
     41 H7          -0.6540     4.9850     2.8880 hc         1 KU4       0.041700
     42 H8          -0.3670     5.0350     4.6330 hc         1 KU4       0.041700
     43 H9          -2.3940     6.2850     1.8770 ha         1 KU4       0.111000
     44 H10         -3.9490     8.1860     2.0780 ha         1 KU4       0.106000
     45 H11         -4.5030     9.0980     4.3010 ha         1 KU4       0.107000
     46 H12         -3.5050     8.1030     6.3250 ha         1 KU4       0.115000
     47 H13         -3.3940     1.5230     4.5610 h1         1 KU4       0.022200
     48 H14         -3.3450     0.8850     2.8970 h1         1 KU4       0.022200
     49 H15         -2.7370    -0.5860     5.5040 hc         1 KU4       0.031200
     50 H16         -3.7760    -1.1120     4.1440 hc         1 KU4       0.031200
     51 H17         -1.8920    -1.5160     2.7150 hc         1 KU4       0.030700
     52 H18         -1.2130    -1.9970     4.2960 hc         1 KU4       0.030700
     53 H19          5.9740     1.0010     2.2770 h1         1 KU4       0.034700
     54 H20          6.1230    -0.7200     1.8940 h1         1 KU4       0.034700
     55 H21          5.6220     0.3970     4.6760 h1         1 KU4       0.010200
     56 H22          7.1980    -0.1320     4.0710 h1         1 KU4       0.010200
     57 H23          6.6630    -0.0540     6.2580 ha         1 KU4       0.118000
     58 H24          7.1270    -0.7580     8.5730 ha         1 KU4       0.101500
     59 H25          3.6760    -0.2460     3.3190 hn         1 KU4       0.196500
     60 H26         -1.6340     0.0060     1.2270 hn         1 KU4       0.182500
     61 H27          1.9520    -0.7700    -1.6600 ho         1 KU4       0.408000
     62 C15         -0.9720     2.4900     3.7840 c          1 KU4       0.604100
     63 H1           6.7920    -3.1070     9.2400 ha         1 KU4       0.105000
@<TRIPOS>BOND
     1     1    11 1   
     2     1    29 1   
     3     1    30 2   
     4     2     3 ar  
     5     2    25 ar  
     6     2    63 1   
     7     3     4 ar  
     8     3    36 1   
     9     4    23 ar  
    10     4    37 1   
    11     5     6 1   
    12     5    27 2   
    13     5    29 1   
    14     6    18 1   
    15     6    28 1   
    16     6    38 1   
    17     7     8 1   
    18     7    39 1   
    19     7    40 1   
    20     7    62 1   
    21     8     9 1   
    22     8    41 1   
    23     8    42 1   
    24     9    10 ar  
    25     9    15 ar  
    26    10    12 ar  
    27    10    43 1   
    28    11    19 2   
    29    11    31 1   
    30    12    13 ar  
    31    12    44 1   
    32    13    14 ar  
    33    13    45 1   
    34    14    15 ar  
    35    14    46 1   
    36    15    35 1   
    37    16    17 1   
    38    16    28 1   
    39    16    47 1   
    40    16    48 1   
    41    17    18 1   
    42    17    49 1   
    43    17    50 1   
    44    18    51 1   
    45    18    52 1   
    46    19    20 1   
    47    19    27 1   
    48    20    26 1   
    49    20    33 2   
    50    21    22 1   
    51    21    26 1   
    52    21    53 1   
    53    21    54 1   
    54    22    32 1   
    55    22    55 1   
    56    22    56 1   
    57    23    24 ar  
    58    23    32 1   
    59    24    25 ar  
    60    24    57 1   
    61    25    58 1   
    62    26    59 1   
    63    28    62 1   
    64    29    60 1   
    65    31    61 1   
    66    34    62 2   
@<TRIPOS>SUBSTRUCTURE
     1 KU4         1 TEMP              0 ****  ****    0 ROOT
