@<TRIPOS>MOLECULE
KU5
   63    66     1     0     0
SMALL
bcc


@<TRIPOS>ATOM
      1 C1           0.0000     0.0000     0.0000 cc         1 KU5       0.238900
      2 C10         -9.2450     1.2310     4.4090 ca         1 KU5      -0.136500
      3 C11         -9.8940     0.0320     4.1830 ca         1 KU5      -0.052000
      4 C12         -9.2460    -1.1640     4.4310 ca         1 KU5      -0.136500
      5 C13         -7.9470    -1.1600     4.9050 ca         1 KU5       0.004000
      6 C14         -0.7250     0.0010    -1.3220 c3         1 KU5       0.013400
      7 C15         -0.2730     1.2100    -2.1670 c3         1 KU5      -0.040400
      8 C16         -1.5900     1.6670    -2.8510 c3         1 KU5      -0.025400
      9 C17         -2.6320     1.3830    -1.7400 c3         1 KU5       0.041000
     10 C19         -4.4240    -0.4610    -0.2700 c3         1 KU5      -0.011300
     11 C2          -0.1260     0.0100     2.3130 cd         1 KU5       0.010400
     12 C20         -6.8810    -1.3210     0.7570 ca         1 KU5       0.039900
     13 C21         -7.2980    -0.1450     0.1470 ca         1 KU5      -0.127000
     14 C22         -8.6260     0.2280     0.2060 ca         1 KU5      -0.082000
     15 C23         -9.5410    -0.5680     0.8700 ca         1 KU5      -0.093000
     16 C24         -9.1310    -1.7400     1.4790 ca         1 KU5      -0.087000
     17 C25         -7.8050    -2.1220     1.4200 ca         1 KU5      -0.019600
     18 C3           1.2570     0.0110     2.4150 cc         1 KU5       0.048900
     19 C4           2.0330     0.0000     1.1680 c          1 KU5       0.548700
     20 C5          -0.9640     0.0220     3.5320 c          1 KU5       0.600300
     21 C6          -3.1370     0.0330     4.6350 c3         1 KU5       0.084000
     22 C7          -4.6150     0.0300     4.2390 c3         1 KU5      -0.030600
     23 C8          -7.2970     0.0390     5.1300 ca         1 KU5      -0.155500
     24 C9          -7.9440     1.2350     4.8770 ca         1 KU5       0.004000
     25 N1           1.3550     0.0000     0.0000 ns         1 KU5       0.038600
     26 N2          -0.7000     0.0050     1.0960 nd         1 KU5      -0.504300
     27 N3          -2.3070     0.0220     3.4270 ns         1 KU5      -0.187900
     28 N4          -2.1710     0.1390    -1.0990 n          1 KU5      -0.142800
     29 O1           3.2510    -0.0000     1.1880 o          1 KU5      -0.661500
     30 O2           1.8710     0.0220     3.6240 oh         1 KU5      -0.421100
     31 O3          -0.4400     0.0320     4.6290 o          1 KU5      -0.624100
     32 O4          -2.4600    -1.7260     0.0680 o          1 KU5      -0.599100
     33 O5          -5.5200    -1.1860     6.4340 o          1 KU5      -0.580800
     34 O6          -5.5190     1.2870     6.4110 o          1 KU5      -0.580800
     35 S1          -5.6420     0.0440     5.7330 sy         1 KU5       0.883300
     36 S2          -5.1870    -1.8010     0.6850 ss         1 KU5      -0.253000
     37 Cl1         -7.2900    -3.5930     2.1830 cl         1 KU5       0.016600
     38 H2         -10.9130     0.0290     3.8140 ha         1 KU5       0.100000
     39 H3          -9.7550    -2.1040     4.2530 ha         1 KU5       0.109000
     40 H4          -7.4390    -2.0960     5.1010 ha         1 KU5       0.125000
     41 H5          -0.5230    -0.9180    -1.8590 h1         1 KU5       0.050700
     42 H6           0.1190     1.9950    -1.5320 hc         1 KU5       0.032200
     43 H7           0.4560     0.9070    -2.9080 hc         1 KU5       0.032200
     44 H8          -1.5560     2.7230    -3.0880 hc         1 KU5       0.031200
     45 H9          -1.7940     1.0700    -3.7320 hc         1 KU5       0.031200
     46 H10         -3.6140     1.2410    -2.1740 h1         1 KU5       0.021700
     47 H11         -2.6450     2.1940    -1.0210 h1         1 KU5       0.021700
     48 H12         -4.5690     0.4790     0.2480 h1         1 KU5       0.053200
     49 H13         -4.8830    -0.4090    -1.2490 h1         1 KU5       0.053200
     50 H14         -6.5820     0.4800    -0.3720 ha         1 KU5       0.110000
     51 H15         -8.9520     1.1450    -0.2700 ha         1 KU5       0.106000
     52 H16        -10.5820    -0.2700     0.9160 ha         1 KU5       0.108000
     53 H17         -9.8510    -2.3610     1.9970 ha         1 KU5       0.120000
     54 H18         -2.9200     0.9230     5.2150 h1         1 KU5       0.039200
     55 H19         -2.9210    -0.8460     5.2300 h1         1 KU5       0.039200
     56 H20         -4.8310    -0.8590     3.6600 h1         1 KU5       0.074200
     57 H21         -4.8310     0.9100     3.6440 h1         1 KU5       0.074200
     58 H22         -7.4350     2.1750     5.0540 ha         1 KU5       0.125000
     59 H23          1.8550    -0.0070    -0.8670 hn         1 KU5       0.181500
     60 H24         -2.7380     0.0360     2.5240 hn         1 KU5       0.191500
     61 H25          2.3550    -0.7790     3.7380 ho         1 KU5       0.413000
     62 C18         -2.9480    -0.7290    -0.4200 c          1 KU5       0.628100
     63 H1          -9.7530     2.1670     4.2120 ha         1 KU5       0.109000
@<TRIPOS>BOND
     1     1     6 1   
     2     1    25 1   
     3     1    26 2   
     4     2     3 ar  
     5     2    24 ar  
     6     2    63 1   
     7     3     4 ar  
     8     3    38 1   
     9     4     5 ar  
    10     4    39 1   
    11     5    23 ar  
    12     5    40 1   
    13     6     7 1   
    14     6    28 1   
    15     6    41 1   
    16     7     8 1   
    17     7    42 1   
    18     7    43 1   
    19     8     9 1   
    20     8    44 1   
    21     8    45 1   
    22     9    28 1   
    23     9    46 1   
    24     9    47 1   
    25    10    36 1   
    26    10    48 1   
    27    10    49 1   
    28    10    62 1   
    29    11    18 2   
    30    11    20 1   
    31    11    26 1   
    32    12    13 ar  
    33    12    17 ar  
    34    12    36 1   
    35    13    14 ar  
    36    13    50 1   
    37    14    15 ar  
    38    14    51 1   
    39    15    16 ar  
    40    15    52 1   
    41    16    17 ar  
    42    16    53 1   
    43    17    37 1   
    44    18    19 1   
    45    18    30 1   
    46    19    25 1   
    47    19    29 2   
    48    20    27 1   
    49    20    31 2   
    50    21    22 1   
    51    21    27 1   
    52    21    54 1   
    53    21    55 1   
    54    22    35 1   
    55    22    56 1   
    56    22    57 1   
    57    23    24 ar  
    58    23    35 1   
    59    24    58 1   
    60    25    59 1   
    61    27    60 1   
    62    28    62 1   
    63    30    61 1   
    64    32    62 2   
    65    33    35 2   
    66    34    35 2   
@<TRIPOS>SUBSTRUCTURE
     1 KU5         1 TEMP              0 ****  ****    0 ROOT
