@<TRIPOS>MOLECULE
molecule
   63    66     1     0     0
SMALL
bcc


@<TRIPOS>ATOM
      1 C1           0.0000     0.0000     0.0000 cc         1 KU5       0.466900
      2 C10         -9.2450     1.2310     4.4090 ca         1 KU5      -0.151000
      3 C11         -9.8940     0.0320     4.1830 ca         1 KU5      -0.076000
      4 C12         -9.2460    -1.1640     4.4310 ca         1 KU5      -0.151000
      5 C13         -7.9470    -1.1600     4.9050 ca         1 KU5      -0.026000
      6 C14         -0.7250     0.0010    -1.3220 c3         1 KU5       0.089400
      7 C15         -0.2730     1.2100    -2.1670 c3         1 KU5      -0.099400
      8 C16         -1.5900     1.6670    -2.8510 c3         1 KU5      -0.092400
      9 C17         -2.6320     1.3830    -1.7400 c3         1 KU5       0.091000
     10 C19         -4.4240    -0.4610    -0.2700 c3         1 KU5      -0.111300
     11 C2          -0.1260     0.0100     2.3130 cc         1 KU5       0.088400
     12 C20         -6.8810    -1.3210     0.7570 ca         1 KU5       0.013900
     13 C21         -7.2980    -0.1450     0.1470 ca         1 KU5      -0.148000
     14 C22         -8.6260     0.2280     0.2060 ca         1 KU5      -0.107000
     15 C23         -9.5410    -0.5680     0.8700 ca         1 KU5      -0.128000
     16 C24         -9.1310    -1.7400     1.4790 ca         1 KU5      -0.100000
     17 C25         -7.8050    -2.1220     1.4200 ca         1 KU5       0.035400
     18 C3           1.2570     0.0110     2.4150 cd         1 KU5       0.012900
     19 C4           2.0330     0.0000     1.1680 c          1 KU5       0.655700
     20 C5          -0.9640     0.0220     3.5320 c          1 KU5       0.686300
     21 C6          -3.1370     0.0330     4.6350 c3         1 KU5       0.140000
     22 C7          -4.6150     0.0300     4.2390 c3         1 KU5      -0.237600
     23 C8          -7.2970     0.0390     5.1300 ca         1 KU5      -0.297500
     24 C9          -7.9440     1.2350     4.8770 ca         1 KU5      -0.026000
     25 N1           1.3550     0.0000     0.0000 ns         1 KU5      -0.445400
     26 N2          -0.7000     0.0050     1.0960 nc         1 KU5      -0.626300
     27 N3          -2.3070     0.0220     3.4270 ns         1 KU5      -0.564900
     28 N4          -2.1710     0.1390    -1.0990 n          1 KU5      -0.479800
     29 O1           3.2510    -0.0000     1.1880 o          1 KU5      -0.617500
     30 O2           1.8710     0.0220     3.6240 oh         1 KU5      -0.446100
     31 O3          -0.4400     0.0320     4.6290 o          1 KU5      -0.576100
     32 O4          -2.4600    -1.7260     0.0680 o          1 KU5      -0.563100
     33 O5          -5.5200    -1.1860     6.4340 o          1 KU5      -0.611800
     34 O6          -5.5190     1.2870     6.4110 o          1 KU5      -0.611800
     35 S1          -5.6420     0.0440     5.7330 sy         1 KU5       1.202300
     36 S2          -5.1870    -1.8010     0.6850 ss         1 KU5      -0.127000
     37 Cl1         -7.2900    -3.5930     2.1830 cl         1 KU5      -0.084400
     38 H2         -10.9130     0.0290     3.8140 ha         1 KU5       0.130000
     39 H3          -9.7550    -2.1040     4.2530 ha         1 KU5       0.135500
     40 H4          -7.4390    -2.0960     5.1010 ha         1 KU5       0.153000
     41 H5          -0.5230    -0.9180    -1.8590 h1         1 KU5       0.086700
     42 H6           0.1190     1.9950    -1.5320 hc         1 KU5       0.065700
     43 H7           0.4560     0.9070    -2.9080 hc         1 KU5       0.065700
     44 H8          -1.5560     2.7230    -3.0880 hc         1 KU5       0.064700
     45 H9          -1.7940     1.0700    -3.7320 hc         1 KU5       0.064700
     46 H10         -3.6140     1.2410    -2.1740 h1         1 KU5       0.051700
     47 H11         -2.6450     2.1940    -1.0210 h1         1 KU5       0.051700
     48 H12         -4.5690     0.4790     0.2480 h1         1 KU5       0.080700
     49 H13         -4.8830    -0.4090    -1.2490 h1         1 KU5       0.080700
     50 H14         -6.5820     0.4800    -0.3720 ha         1 KU5       0.131000
     51 H15         -8.9520     1.1450    -0.2700 ha         1 KU5       0.135000
     52 H16        -10.5820    -0.2700     0.9160 ha         1 KU5       0.138000
     53 H17         -9.8510    -2.3610     1.9970 ha         1 KU5       0.147000
     54 H18         -2.9200     0.9230     5.2150 h1         1 KU5       0.066700
     55 H19         -2.9210    -0.8460     5.2300 h1         1 KU5       0.066700
     56 H20         -4.8310    -0.8590     3.6600 h1         1 KU5       0.106700
     57 H21         -4.8310     0.9100     3.6440 h1         1 KU5       0.106700
     58 H22         -7.4350     2.1750     5.0540 ha         1 KU5       0.153000
     59 H23          1.8550    -0.0070    -0.8670 hn         1 KU5       0.338500
     60 H24         -2.7380     0.0360     2.5240 hn         1 KU5       0.332500
     61 H25          2.3550    -0.7790     3.7380 ho         1 KU5       0.433000
     62 C18         -2.9480    -0.7290    -0.4200 c          1 KU5       0.704100
     63 H1          -9.7530     2.1670     4.2120 ha         1 KU5       0.135500
@<TRIPOS>BOND
     1    37    17 1
     2    16    17 ar
     3    16    15 ar
     4    17    12 ar
     5    15    14 ar
     6    12    36 1
     7    12    13 ar
     8    36    10 1
     9    14    13 ar
    10    10    62 1
    11    32    62 2
    12    62    28 1
    13    21    27 1
    14    21    22 1
    15    27    20 1
    16    34    35 2
    17    22    35 1
    18    28     9 1
    19    28     6 1
    20    20    31 2
    21    20    11 1
    22    35    33 2
    23    35    23 1
    24    26    11 1
    25    26     1 2
    26     9     8 1
    27     6     1 1
    28     6     7 1
    29    11    18 2
    30     1    25 1
    31    18    30 1
    32    18    19 1
    33    23     5 ar
    34    23    24 ar
    35     5     4 ar
    36     7     8 1
    37    25    19 1
    38    19    29 2
    39    24     2 ar
    40     4     3 ar
    41     2     3 ar
    42     2    63 1
    43     3    38 1
    44     4    39 1
    45     5    40 1
    46     6    41 1
    47     7    42 1
    48     7    43 1
    49     8    44 1
    50     8    45 1
    51     9    46 1
    52     9    47 1
    53    10    48 1
    54    10    49 1
    55    13    50 1
    56    14    51 1
    57    15    52 1
    58    16    53 1
    59    21    54 1
    60    21    55 1
    61    22    56 1
    62    22    57 1
    63    24    58 1
    64    25    59 1
    65    27    60 1
    66    30    61 1
@<TRIPOS>SUBSTRUCTURE
     1 KU5         1 TEMP              0 ****  ****    0 ROOT
