@<TRIPOS>MOLECULE
molecule
   61    64     1     0     0
SMALL
bcc


@<TRIPOS>ATOM
      1 C1           0.0000     0.0000     0.0000 cc         1 KU7       0.449900
      2 C10         -0.7230     0.0070    -1.3220 c3         1 KU7       0.095400
      3 C11         -0.0800    -1.4010    -3.1460 c3         1 KU7       0.093000
      4 C13          2.0950     0.4490    -3.9380 c3         1 KU7       0.077400
      5 C14          5.9620     0.9770    -6.9710 ca         1 KU7      -0.143000
      6 C15          6.1390     1.9400    -5.9960 ca         1 KU7      -0.135000
      7 C16          5.2010     2.0850    -4.9890 ca         1 KU7       0.117900
      8 C17          4.0830     1.2620    -4.9590 ca         1 KU7       0.110100
      9 C18          3.9100     0.2970    -5.9390 ca         1 KU7      -0.205000
     10 C19          4.8470     0.1590    -6.9460 ca         1 KU7      -0.107000
     11 C2           2.0170     0.0000     1.1380 cc         1 KU7       0.112400
     12 C20          7.0910    -2.9310     7.6760 ca         1 KU7      -0.167000
     13 C21          6.6310    -3.8490     6.7500 ca         1 KU7      -0.091000
     14 C22          6.2670    -3.4330     5.4840 ca         1 KU7      -0.190000
     15 C23          6.3650    -2.0920     5.1430 ca         1 KU7       0.141100
     16 C24          6.8270    -1.1720     6.0730 ca         1 KU7      -0.190000
     17 C25          7.1890    -1.5940     7.3380 ca         1 KU7      -0.091000
     18 C3           1.3600    -0.0010     2.3590 cd         1 KU7      -0.037100
     19 C4          -0.1100    -0.0070     2.3430 c          1 KU7       0.659700
     20 C5           3.4960     0.0050     1.0890 c          1 KU7       0.679300
     21 C6           5.6690    -0.0020     2.1910 c3         1 KU7       0.120000
     22 C7           6.2390    -0.3060     3.5790 c3         1 KU7       0.120400
     23 C8          -1.5830    -1.6500    -2.8640 c3         1 KU7      -0.093400
     24 C9          -1.7050    -1.1830    -1.3890 c3         1 KU7      -0.101400
     25 N1           1.3000     0.0000     0.0000 nc         1 KU7      -0.556300
     26 N2          -0.7300    -0.0010     1.1420 ns         1 KU7      -0.440400
     27 N3           4.2100    -0.1200     2.2260 ns         1 KU7      -0.581900
     28 N4           0.2400    -0.1590    -2.4200 n          1 KU7      -0.488800
     29 O1           2.0480     0.0030     3.5260 oh         1 KU7      -0.484100
     30 O2          -0.7490    -0.0080     3.3800 o          1 KU7      -0.642500
     31 O3           4.0680     0.1230     0.0220 o          1 KU7      -0.570100
     32 O4           6.0100    -1.6790     3.8980 os         1 KU7      -0.329900
     33 O5           3.1590     1.4020    -3.9710 os         1 KU7      -0.277900
     34 O6           1.4710     1.6370    -1.9970 o          1 KU7      -0.536100
     35 H1          -1.2650     0.9360    -1.4460 h1         1 KU7       0.082700
     36 H2           0.5150    -2.2230    -2.7650 h1         1 KU7       0.051700
     37 H3           0.0850    -1.2680    -4.2080 h1         1 KU7       0.051700
     38 H4           1.4860     0.5580    -4.8270 h1         1 KU7       0.052200
     39 H5           2.5080    -0.5520    -3.9030 h1         1 KU7       0.052200
     40 H6           6.6960     0.8650    -7.7600 ha         1 KU7       0.136000
     41 H7           7.0120     2.5800    -6.0190 ha         1 KU7       0.149000
     42 H8           3.0380    -0.3460    -5.9190 ha         1 KU7       0.134000
     43 H9           4.7110    -0.5950    -7.7120 ha         1 KU7       0.132000
     44 H10          7.3750    -3.2600     8.6690 ha         1 KU7       0.130000
     45 H11          6.5550    -4.8960     7.0180 ha         1 KU7       0.131500
     46 H12          5.9070    -4.1520     4.7590 ha         1 KU7       0.138500
     47 H13          6.9040    -0.1250     5.8090 ha         1 KU7       0.138500
     48 H14          7.5500    -0.8760     8.0650 ha         1 KU7       0.131500
     49 H15          5.9430     1.0060     1.9020 h1         1 KU7       0.066700
     50 H16          6.0720    -0.7060     1.4730 h1         1 KU7       0.066700
     51 H17          5.7510     0.3220     4.3150 h1         1 KU7       0.044200
     52 H18          7.3040    -0.1070     3.5830 h1         1 KU7       0.044200
     53 H19         -2.2030    -1.0440    -3.5130 hc         1 KU7       0.062200
     54 H20         -1.8230    -2.7030    -2.9560 hc         1 KU7       0.062200
     55 H21         -2.7150    -0.8570    -1.1740 hc         1 KU7       0.062700
     56 H22         -1.3960    -1.9710    -0.7120 hc         1 KU7       0.062700
     57 H23         -1.7290    -0.0040     1.0960 hn         1 KU7       0.340500
     58 H24          3.7450    -0.3270     3.0870 hn         1 KU7       0.344500
     59 H25          1.5260     0.4110     4.1970 ho         1 KU7       0.448000
     60 C12          1.2470     0.6860    -2.7150 c          1 KU7       0.690100
     61 F1           5.3730     3.0270    -4.0350 f          1 KU7      -0.123900
@<TRIPOS>BOND
     1    12    17 ar
     2    12    13 ar
     3    17    16 ar
     4    13    14 ar
     5    16    15 ar
     6    14    15 ar
     7    15    32 1
     8    32    22 1
     9    22    21 1
    10    34    60 2
    11     4    33 1
    12     4    60 1
    13    33     8 1
    14    21    27 1
    15    61     7 1
    16    60    28 1
    17     8     7 ar
    18     8     9 ar
    19     7     6 ar
    20    27    20 1
    21     9    10 ar
    22     6     5 ar
    23    10     5 ar
    24    28     3 1
    25    28     2 1
    26    20    31 2
    27    20    11 1
    28     3    23 1
    29    25    11 1
    30    25     1 2
    31    11    18 2
    32     2     1 1
    33     2    24 1
    34     1    26 1
    35    18    29 1
    36    18    19 1
    37    23    24 1
    38    26    19 1
    39    19    30 2
    40     2    35 1
    41     3    36 1
    42     3    37 1
    43     4    38 1
    44     4    39 1
    45     5    40 1
    46     6    41 1
    47     9    42 1
    48    10    43 1
    49    12    44 1
    50    13    45 1
    51    14    46 1
    52    16    47 1
    53    17    48 1
    54    21    49 1
    55    21    50 1
    56    22    51 1
    57    22    52 1
    58    23    53 1
    59    23    54 1
    60    24    55 1
    61    24    56 1
    62    26    57 1
    63    27    58 1
    64    29    59 1
@<TRIPOS>SUBSTRUCTURE
     1 KU7         1 TEMP              0 ****  ****    0 ROOT
