@<TRIPOS>MOLECULE
KU8
   49    52     1     0     0
SMALL
bcc


@<TRIPOS>ATOM
      1 C1N          0.0000     0.0000     0.0000 c3         1 KU8       0.050000
      2 C1K          1.5500     0.0000     0.0000 c3         1 KU8      -0.048400
      3 C1L          2.0480     0.0000     1.3890 c3         1 KU8       0.137800
      4 N1R          1.6660    -1.1800     2.1660 n7         1 KU8      -0.561200
      5 C1M          0.3810    -0.9800     2.7990 c3         1 KU8       0.125800
      6 C1O         -0.7330    -1.5580     1.9050 c3         1 KU8       0.028000
      7 N2B         -0.4830    -1.2770     0.4770 n          1 KU8      -0.122800
      8 C1T         -0.7150    -2.2550    -0.4230 c          1 KU8       0.609700
      9 O1A         -0.5920    -2.0290    -1.6110 o          1 KU8      -0.632100
     10 C1W         -1.1210    -3.5980     0.0360 ca         1 KU8      -0.168600
     11 C1J         -2.2140    -3.7480     0.8920 ca         1 KU8      -0.052000
     12 C1V         -0.4160    -4.7290    -0.3890 ca         1 KU8       0.164900
     13 F1C          0.6400    -4.5960    -1.2200 f          1 KU8      -0.115900
     14 C1G         -0.8030    -5.9840     0.0450 ca         1 KU8      -0.140000
     15 C1F         -1.8830    -6.1200     0.8960 ca         1 KU8      -0.047000
     16 C1U         -2.5880    -5.0060     1.3170 ca         1 KU8      -0.104300
     17 C1P         -3.7680    -5.1670     2.2400 c3         1 KU8       0.020600
     18 C1X         -5.0230    -5.3430     1.4250 cc         1 KU8       0.386900
     19 C1Z         -6.3120    -5.5200     2.0950 ca         1 KU8      -0.137900
     20 C1H         -6.4230    -5.5310     3.4860 ca         1 KU8      -0.097000
     21 C1D         -7.6580    -5.7010     4.0680 ca         1 KU8      -0.073000
     22 C1E         -8.7960    -5.8610     3.2870 ca         1 KU8      -0.105000
     23 C1I         -8.7110    -5.8540     1.9120 ca         1 KU8      -0.027000
     24 C2A         -7.4700    -5.6830     1.3010 ca         1 KU8      -0.142600
     25 C1Y         -7.3190    -5.6670    -0.1590 c          1 KU8       0.598100
     26 O1B         -8.2880    -5.8030    -0.8860 o          1 KU8      -0.671500
     27 N1S         -6.0860    -5.4970    -0.6820 ns         1 KU8       0.096100
     28 N1Q         -4.9620    -5.3340     0.1270 nd         1 KU8      -0.516300
     29 H1N         -0.3600     0.7870     0.6520 h1         1 KU8       0.032200
     30 H1NA        -0.3600     0.1670    -1.0080 h1         1 KU8       0.032200
     31 H1K          1.9090    -0.8860    -0.5100 hc         1 KU8       0.034200
     32 H1KA         1.9080     0.8860    -0.5100 hc         1 KU8       0.034200
     33 H1L          3.1290     0.0580     1.3650 h1         1 KU8       0.004700
     34 H1LA         1.6610     0.8790     1.8910 h1         1 KU8       0.004700
     35 HN1R         2.3590    -1.3570     2.8660 hn         1 KU8       0.252800
     36 H1M          0.2120     0.0800     2.9430 h1         1 KU8       0.012700
     37 H1MA         0.3710    -1.4850     3.7570 h1         1 KU8       0.012700
     38 H1O         -0.7800    -2.6310     2.0500 h1         1 KU8       0.028200
     39 H1OA        -1.6800    -1.1160     2.1910 h1         1 KU8       0.028200
     40 H1J         -2.7680    -2.8770     1.2220 ha         1 KU8       0.115000
     41 H1G         -0.2570    -6.8610    -0.2800 ha         1 KU8       0.122000
     42 H1F         -2.1820    -7.1050     1.2330 ha         1 KU8       0.107000
     43 H1P         -3.8620    -4.2850     2.8620 hc         1 KU8       0.030200
     44 H1PA        -3.6200    -6.0380     2.8670 hc         1 KU8       0.030200
     45 H1H         -5.5420    -5.4070     4.1040 ha         1 KU8       0.113000
     46 H1D         -7.7450    -5.7090     5.1480 ha         1 KU8       0.105000
     47 H1E         -9.7590    -5.9930     3.7640 ha         1 KU8       0.109000
     48 H1I         -9.6030    -5.9790     1.3100 ha         1 KU8       0.130000
     49 HN1S        -5.9770    -5.4820    -1.6770 hn         1 KU8       0.208500
@<TRIPOS>BOND
     1     1     2 1   
     2     1     7 1   
     3     1    29 1   
     4     1    30 1   
     5     2     3 1   
     6     2    31 1   
     7     2    32 1   
     8     3     4 1   
     9     3    33 1   
    10     3    34 1   
    11     4     5 1   
    12     4    35 1   
    13     5     6 1   
    14     5    36 1   
    15     5    37 1   
    16     6     7 1   
    17     6    38 1   
    18     6    39 1   
    19     7     8 1   
    20     8     9 2   
    21     8    10 1   
    22    10    11 ar  
    23    10    12 ar  
    24    11    16 ar  
    25    11    40 1   
    26    12    13 1   
    27    12    14 ar  
    28    14    15 ar  
    29    14    41 1   
    30    15    16 ar  
    31    15    42 1   
    32    16    17 1   
    33    17    18 1   
    34    17    43 1   
    35    17    44 1   
    36    18    19 1   
    37    18    28 2   
    38    19    20 ar  
    39    19    24 ar  
    40    20    21 ar  
    41    20    45 1   
    42    21    22 ar  
    43    21    46 1   
    44    22    23 ar  
    45    22    47 1   
    46    23    24 ar  
    47    23    48 1   
    48    24    25 1   
    49    25    26 2   
    50    25    27 1   
    51    27    28 1   
    52    27    49 1   
@<TRIPOS>SUBSTRUCTURE
     1 KU8         1 TEMP              0 ****  ****    0 ROOT
