@<TRIPOS>MOLECULE
molecule
   49    52     1     0     0
SMALL
bcc


@<TRIPOS>ATOM
      1 C1N          0.0000     0.0000     0.0000 c3         1 KU8       0.114000
      2 C1K          1.5500     0.0000     0.0000 c3         1 KU8      -0.101400
      3 C1L          2.0480     0.0000     1.3890 c3         1 KU8       0.162800
      4 N1R          1.6660    -1.1800     2.1660 n7         1 KU8      -0.808200
      5 C1M          0.3810    -0.9800     2.7990 c3         1 KU8       0.142800
      6 C1O         -0.7330    -1.5580     1.9050 c3         1 KU8       0.103000
      7 N2B         -0.4830    -1.2770     0.4770 n          1 KU8      -0.466800
      8 C1T         -0.7150    -2.2550    -0.4230 c          1 KU8       0.678700
      9 O1A         -0.5920    -2.0290    -1.6110 o          1 KU8      -0.592100
     10 C1W         -1.1210    -3.5980     0.0360 ca         1 KU8      -0.170600
     11 C1J         -2.2140    -3.7480     0.8920 ca         1 KU8      -0.072000
     12 C1V         -0.4160    -4.7290    -0.3890 ca         1 KU8       0.187900
     13 F1C          0.6400    -4.5960    -1.2200 f          1 KU8      -0.119900
     14 C1G         -0.8030    -5.9840     0.0450 ca         1 KU8      -0.174000
     15 C1F         -1.8830    -6.1200     0.8960 ca         1 KU8      -0.074000
     16 C1U         -2.5880    -5.0060     1.3170 ca         1 KU8      -0.106300
     17 C1P         -3.7680    -5.1670     2.2400 c3         1 KU8      -0.043400
     18 C1X         -5.0230    -5.3430     1.4250 cc         1 KU8       0.385900
     19 C1Z         -6.3120    -5.5200     2.0950 ca         1 KU8      -0.137900
     20 C1H         -6.4230    -5.5310     3.4860 ca         1 KU8      -0.123000
     21 C1D         -7.6580    -5.7010     4.0680 ca         1 KU8      -0.103000
     22 C1E         -8.7960    -5.8610     3.2870 ca         1 KU8      -0.131000
     23 C1I         -8.7110    -5.8540     1.9120 ca         1 KU8      -0.062000
     24 C2A         -7.4700    -5.6830     1.3010 ca         1 KU8      -0.133600
     25 C1Y         -7.3190    -5.6670    -0.1590 c          1 KU8       0.682100
     26 O1B         -8.2880    -5.8030    -0.8860 o          1 KU8      -0.631500
     27 N1S         -6.0860    -5.4970    -0.6820 ns         1 KU8      -0.305900
     28 N1Q         -4.9620    -5.3340     0.1270 nd         1 KU8      -0.428300
     29 H1N         -0.3600     0.7870     0.6520 h1         1 KU8       0.058200
     30 H1NA        -0.3600     0.1670    -1.0080 h1         1 KU8       0.058200
     31 H1K          1.9090    -0.8860    -0.5100 hc         1 KU8       0.062200
     32 H1KA         1.9080     0.8860    -0.5100 hc         1 KU8       0.062200
     33 H1L          3.1290     0.0580     1.3650 h1         1 KU8       0.026200
     34 H1LA         1.6610     0.8790     1.8910 h1         1 KU8       0.026200
     35 HN1R         2.3590    -1.3570     2.8660 hn         1 KU8       0.356800
     36 H1M          0.2120     0.0800     2.9430 h1         1 KU8       0.035200
     37 H1MA         0.3710    -1.4850     3.7570 h1         1 KU8       0.035200
     38 H1O         -0.7800    -2.6310     2.0500 h1         1 KU8       0.049700
     39 H1OA        -1.6800    -1.1160     2.1910 h1         1 KU8       0.049700
     40 H1J         -2.7680    -2.8770     1.2220 ha         1 KU8       0.141000
     41 H1G         -0.2570    -6.8610    -0.2800 ha         1 KU8       0.150000
     42 H1F         -2.1820    -7.1050     1.2330 ha         1 KU8       0.138000
     43 H1P         -3.8620    -4.2850     2.8620 hc         1 KU8       0.066200
     44 H1PA        -3.6200    -6.0380     2.8670 hc         1 KU8       0.066200
     45 H1H         -5.5420    -5.4070     4.1040 ha         1 KU8       0.136000
     46 H1D         -7.7450    -5.7090     5.1480 ha         1 KU8       0.135000
     47 H1E         -9.7590    -5.9930     3.7640 ha         1 KU8       0.139000
     48 H1I         -9.6030    -5.9790     1.3100 ha         1 KU8       0.162000
     49 HN1S        -5.9770    -5.4820    -1.6770 hn         1 KU8       0.372500
@<TRIPOS>BOND
     1     1     2 1
     2     1     7 1
     3     2     3 1
     4     3     4 1
     5     4     5 1
     6     5     6 1
     7     6     7 1
     8     7     8 1
     9     8     9 2
    10     8    10 1
    11    10    11 ar
    12    10    12 ar
    13    11    16 ar
    14    12    13 1
    15    12    14 ar
    16    14    15 ar
    17    15    16 ar
    18    16    17 1
    19    17    18 1
    20    18    19 1
    21    18    28 2
    22    19    20 ar
    23    19    24 ar
    24    20    21 ar
    25    21    22 ar
    26    22    23 ar
    27    23    24 ar
    28    24    25 1
    29    25    26 2
    30    25    27 1
    31    27    28 1
    32     1    29 1
    33     1    30 1
    34     2    31 1
    35     2    32 1
    36     3    33 1
    37     3    34 1
    38     4    35 1
    39     5    36 1
    40     5    37 1
    41     6    38 1
    42     6    39 1
    43    11    40 1
    44    14    41 1
    45    15    42 1
    46    17    43 1
    47    17    44 1
    48    20    45 1
    49    21    46 1
    50    22    47 1
    51    23    48 1
    52    27    49 1
@<TRIPOS>SUBSTRUCTURE
     1 KU8         1 TEMP              0 ****  ****    0 ROOT
