@<TRIPOS>MOLECULE
molecule
   61    65     1     0     0
SMALL
bcc


@<TRIPOS>ATOM
      1 C1           0.0000     0.0000     0.0000 c          1 KU9       0.655700
      2 C10          9.4580    -1.8390     5.0670 ca         1 KU9      -0.132500
      3 C11          8.4870    -0.8630     4.9630 ca         1 KU9      -0.105000
      4 C12          7.4570    -1.0000     4.0480 ca         1 KU9      -0.122800
      5 C13          6.1660     0.6130     3.8850 c3         1 KU9      -0.034600
      6 C14          0.0840     0.0000     2.3430 cc         1 KU9       0.469900
      7 C15         -0.6550     0.0070     3.6560 c3         1 KU9       0.089400
      8 C17          2.1920    -0.4750     6.2390 c3         1 KU9      -0.113300
      9 C18          4.3570    -1.3510     7.7800 ca         1 KU9       0.016900
     10 C19          4.0660    -0.1750     8.4590 ca         1 KU9      -0.151000
     11 C2           1.4690     0.0000     0.0000 cd         1 KU9       0.011900
     12 C20          4.8170     0.1900     9.5600 ca         1 KU9      -0.111000
     13 C21          5.8600    -0.6130     9.9840 ca         1 KU9      -0.129000
     14 C22          6.1540    -1.7850     9.3110 ca         1 KU9      -0.103000
     15 C23          5.4060    -2.1560     8.2100 ca         1 KU9       0.042400
     16 C24          0.0100     1.3860     5.4970 c3         1 KU9       0.092000
     17 C25         -1.4820     1.6800     5.1990 c3         1 KU9      -0.091400
     18 C26         -1.6000     1.2250     3.7210 c3         1 KU9      -0.099400
     19 C3           2.1130     0.0000     1.2270 cc         1 KU9       0.087400
     20 C4           3.5920     0.0010     1.2930 c          1 KU9       0.688300
     21 C5           5.6770     0.0020     2.5540 c3         1 KU9       0.159700
     22 C6           6.2230    -1.4390     2.6300 c3         1 KU9      -0.034600
     23 C7           7.4000    -2.1180     3.2380 ca         1 KU9      -0.122800
     24 C8           8.3740    -3.0960     3.3450 ca         1 KU9      -0.105000
     25 C9           9.4050    -2.9550     4.2540 ca         1 KU9      -0.132500
     26 N1           4.2130     0.0010     2.4890 ns         1 KU9      -0.561900
     27 N2           1.3840     0.0010     2.3570 nc         1 KU9      -0.629300
     28 N3           0.3000     0.1380     4.7670 n          1 KU9      -0.480800
     29 N4          -0.6330     0.0060     1.1930 ns         1 KU9      -0.444400
     30 O1          -0.6270    -0.0010    -1.0450 o          1 KU9      -0.618500
     31 O2           2.1700    -0.0000    -1.1610 oh         1 KU9      -0.447100
     32 O3           4.2460     0.0010     0.2690 o          1 KU9      -0.576100
     33 O4           1.3510    -1.7890     4.4680 o          1 KU9      -0.567100
     34 S1           3.3960    -1.8240     6.3800 ss         1 KU9      -0.119000
     35 Cl1          5.7760    -3.6270     7.3640 cl         1 KU9      -0.080400
     36 H1          10.2660    -1.7270     5.7810 ha         1 KU9       0.128500
     37 H2           8.5300     0.0120     5.6010 ha         1 KU9       0.126000
     38 H3           5.4610     0.6130     4.7080 hc         1 KU9       0.058200
     39 H4           6.7260     1.5400     3.8600 hc         1 KU9       0.058200
     40 H5          -1.2260    -0.9060     3.7690 h1         1 KU9       0.087700
     41 H6           2.7150     0.4620     6.0880 h1         1 KU9       0.079200
     42 H7           1.6050    -0.4180     7.1470 h1         1 KU9       0.079200
     43 H8           3.2490     0.4550     8.1270 ha         1 KU9       0.128000
     44 H9           4.5900     1.1070    10.0900 ha         1 KU9       0.133000
     45 H10          6.4470    -0.3240    10.8470 ha         1 KU9       0.138000
     46 H11          6.9720    -2.4120     9.6460 ha         1 KU9       0.149000
     47 H12          0.1600     1.2430     6.5600 h1         1 KU9       0.051700
     48 H13          0.6320     2.1920     5.1270 h1         1 KU9       0.051700
     49 H14         -1.6940     2.7380     5.2950 hc         1 KU9       0.064200
     50 H15         -2.1270     1.0880     5.8380 hc         1 KU9       0.064200
     51 H16         -2.6180     0.9310     3.4930 hc         1 KU9       0.064700
     52 H17         -1.2610     2.0070     3.0530 hc         1 KU9       0.064700
     53 H18          6.1070     0.5300     1.7110 h1         1 KU9       0.093700
     54 H19          6.5240    -1.7660     1.6420 hc         1 KU9       0.058200
     55 H20          5.4800    -2.0850     3.0820 hc         1 KU9       0.058200
     56 H21          8.3320    -3.9710     2.7070 ha         1 KU9       0.126000
     57 H22         10.1660    -3.7220     4.3350 ha         1 KU9       0.128500
     58 H23          3.6740     0.0270     3.3320 hn         1 KU9       0.332500
     59 H24         -1.6330     0.0070     1.2270 hn         1 KU9       0.339500
     60 H25          2.0050    -0.8030    -1.6280 ho         1 KU9       0.433000
     61 C16          1.2810    -0.7360     5.0670 c          1 KU9       0.705100
@<TRIPOS>BOND
     1    25     2 ar
     2    25    24 ar
     3     2     3 ar
     4    24    23 ar
     5     3     4 ar
     6    23     4 ar
     7    23    22 1
     8     4     5 1
     9    34     8 1
    10    34     9 1
    11    22    21 1
    12     5    21 1
    13    33    61 2
    14    35    15 1
    15     8    61 1
    16    21    26 1
    17     9    15 ar
    18     9    10 ar
    19    61    28 1
    20    15    14 ar
    21    10    12 ar
    22    26    20 1
    23    14    13 ar
    24    12    13 ar
    25    28    16 1
    26    28     7 1
    27    20    32 2
    28    20    19 1
    29    27    19 1
    30    27     6 2
    31    16    17 1
    32    19    11 2
    33     7     6 1
    34     7    18 1
    35     6    29 1
    36    11    31 1
    37    11     1 1
    38    18    17 1
    39    29     1 1
    40     1    30 2
    41     2    36 1
    42     3    37 1
    43     5    38 1
    44     5    39 1
    45     7    40 1
    46     8    41 1
    47     8    42 1
    48    10    43 1
    49    12    44 1
    50    13    45 1
    51    14    46 1
    52    16    47 1
    53    16    48 1
    54    17    49 1
    55    17    50 1
    56    18    51 1
    57    18    52 1
    58    21    53 1
    59    22    54 1
    60    22    55 1
    61    24    56 1
    62    25    57 1
    63    26    58 1
    64    29    59 1
    65    31    60 1
@<TRIPOS>SUBSTRUCTURE
     1 KU9         1 TEMP              0 ****  ****    0 ROOT
