@<TRIPOS>MOLECULE
KU9
   61    64     1     0     0
SMALL
bcc


@<TRIPOS>ATOM
      1 C1           0.0000     0.0000     0.0000 c2         1 KU9       0.187000
      2 C10          9.4580    -1.8390     5.0670 c2         1 KU9      -0.110000
      3 C11          8.4870    -0.8630     4.9630 c2         1 KU9      -0.112000
      4 C12          7.4570    -1.0000     4.0480 c1         1 KU9      -0.148000
      5 C13          6.1660     0.6130     3.8850 c2         1 KU9      -0.023000
      6 C14          0.0840     0.0000     2.3430 c2         1 KU9      -0.127000
      7 C15         -0.6550     0.0070     3.6560 c3         1 KU9       0.011000
      8 C17          2.1920    -0.4750     6.2390 c3         1 KU9      -0.223000
      9 C18          4.3570    -1.3510     7.7800 ca         1 KU9      -0.180000
     10 C19          4.0660    -0.1750     8.4590 ca         1 KU9      -0.129000
     11 C2           1.4690     0.0000     0.0000 c2         1 KU9       0.022000
     12 C20          4.8170     0.1900     9.5600 ca         1 KU9      -0.086000
     13 C21          5.8600    -0.6130     9.9840 ca         1 KU9      -0.095000
     14 C22          6.1540    -1.7850     9.3110 ca         1 KU9      -0.085000
     15 C23          5.4060    -2.1560     8.2100 ca         1 KU9      -0.093000
     16 C24          0.0100     1.3860     5.4970 c3         1 KU9      -0.074000
     17 C25         -1.4820     1.6800     5.1990 c3         1 KU9      -0.104000
     18 C26         -1.6000     1.2250     3.7210 c3         1 KU9      -0.120000
     19 C3           2.1130     0.0000     1.2270 c2         1 KU9      -0.112000
     20 C4           3.5920     0.0010     1.2930 c2         1 KU9       0.276000
     21 C5           5.6770     0.0020     2.5540 c3         1 KU9      -0.020000
     22 C6           6.2230    -1.4390     2.6300 c3         1 KU9      -0.042000
     23 C7           7.4000    -2.1180     3.2380 c2         1 KU9      -0.101000
     24 C8           8.3740    -3.0960     3.3450 c2         1 KU9      -0.034000
     25 C9           9.4050    -2.9550     4.2540 c2         1 KU9      -0.108000
     26 N1           4.2130     0.0010     2.4890 ns         1 KU9       0.017000
     27 N2           1.3840     0.0010     2.3570 n2         1 KU9      -0.079000
     28 N3           0.3000     0.1380     4.7670 n          1 KU9      -0.003000
     29 N4          -0.6330     0.0060     1.1930 ns         1 KU9       0.200000
     30 O1          -0.6270    -0.0010    -1.0450 o          1 KU9      -0.386000
     31 O2           2.1700    -0.0000    -1.1610 oh         1 KU9      -0.177000
     32 O3           4.2460     0.0010     0.2690 o          1 KU9      -0.386000
     33 O4           1.3510    -1.7890     4.4680 o          1 KU9      -0.363000
     34 S1           3.3960    -1.8240     6.3800 ss         1 KU9       0.158000
     35 Cl1          5.7760    -3.6270     7.3640 cl         1 KU9       0.098000
     36 H1          10.2660    -1.7270     5.7810 ha         1 KU9       0.099000
     37 H2           8.5300     0.0120     5.6010 ha         1 KU9       0.098000
     38 H3           5.4610     0.6130     4.7080 ha         1 KU9       0.059000
     39 H4           6.7260     1.5400     3.8600 ha         1 KU9       0.059000
     40 H5          -1.2260    -0.9060     3.7690 h1         1 KU9       0.092000
     41 H6           2.7150     0.4620     6.0880 h1         1 KU9       0.092000
     42 H7           1.6050    -0.4180     7.1470 h1         1 KU9       0.092000
     43 H8           3.2490     0.4550     8.1270 ha         1 KU9       0.109000
     44 H9           4.5900     1.1070    10.0900 ha         1 KU9       0.104000
     45 H10          6.4470    -0.3240    10.8470 ha         1 KU9       0.107000
     46 H11          6.9720    -2.4120     9.6460 ha         1 KU9       0.118000
     47 H12          0.1600     1.2430     6.5600 h1         1 KU9       0.060500
     48 H13          0.6320     2.1920     5.1270 h1         1 KU9       0.060500
     49 H14         -1.6940     2.7380     5.2950 hc         1 KU9       0.070000
     50 H15         -2.1270     1.0880     5.8380 hc         1 KU9       0.070000
     51 H16         -2.6180     0.9310     3.4930 hc         1 KU9       0.070500
     52 H17         -1.2610     2.0070     3.0530 hc         1 KU9       0.070500
     53 H18          6.1070     0.5300     1.7110 h1         1 KU9       0.103000
     54 H19          6.5240    -1.7660     1.6420 hc         1 KU9       0.062500
     55 H20          5.4800    -2.0850     3.0820 hc         1 KU9       0.062500
     56 H21          8.3320    -3.9710     2.7070 ha         1 KU9       0.099000
     57 H22         10.1660    -3.7220     4.3350 ha         1 KU9       0.104000
     58 H23          3.6740     0.0270     3.3320 hn         1 KU9       0.106000
     59 H24         -1.6330     0.0070     1.2270 hn         1 KU9       0.096000
     60 H25          2.0050    -0.8030    -1.6280 ho         1 KU9       0.212000
     61 C16          1.2810    -0.7360     5.0670 c2         1 KU9       0.274000
@<TRIPOS>BOND
     1     1    11 1   
     2     1    29 1   
     3     1    30 1   
     4     2     3 1   
     5     2    25 1   
     6     2    36 1   
     7     3     4 1   
     8     3    37 1   
     9     4    23 1   
    10     5    21 1   
    11     5    38 1   
    12     5    39 1   
    13     6     7 1   
    14     6    27 1   
    15     6    29 1   
    16     7    18 1   
    17     7    28 1   
    18     7    40 1   
    19     8    34 1   
    20     8    41 1   
    21     8    42 1   
    22     8    61 1   
    23     9    10 1   
    24     9    15 1   
    25     9    34 1   
    26    10    12 1   
    27    10    43 1   
    28    11    19 1   
    29    11    31 1   
    30    12    13 1   
    31    12    44 1   
    32    13    14 1   
    33    13    45 1   
    34    14    15 1   
    35    14    46 1   
    36    15    35 1   
    37    16    17 1   
    38    16    28 1   
    39    16    47 1   
    40    16    48 1   
    41    17    18 1   
    42    17    49 1   
    43    17    50 1   
    44    18    51 1   
    45    18    52 1   
    46    19    20 1   
    47    19    27 1   
    48    20    26 1   
    49    20    32 1   
    50    21    22 1   
    51    21    26 1   
    52    21    53 1   
    53    22    23 1   
    54    22    54 1   
    55    22    55 1   
    56    23    24 1   
    57    24    25 1   
    58    24    56 1   
    59    25    57 1   
    60    26    58 1   
    61    28    61 1   
    62    29    59 1   
    63    31    60 1   
    64    33    61 1   
@<TRIPOS>SUBSTRUCTURE
     1 KU9         1 TEMP              0 ****  ****    0 ROOT
