@<TRIPOS>MOLECULE
KUF
   21    22     1     0     0
SMALL
bcc


@<TRIPOS>ATOM
      1 C4           0.0000     0.0000     0.0000 ca         1 KUF      -0.107000
      2 C3           1.3680     0.0000     0.0000 ca         1 KUF      -0.069000
      3 C12          1.4270     0.0000     2.4040 ca         1 KUF      -0.026000
      4 C5          -0.6890     0.0000     1.2130 ca         1 KUF      -0.008800
      5 C11          0.0330     0.0000     2.4300 ca         1 KUF      -0.161600
      6 C2           2.0810     0.0000     1.1910 ca         1 KUF      -0.114300
      7 C6          -2.1520     0.0000     1.2730 cc         1 KUF      -0.165200
      8 C7          -2.7630    -0.0010     2.4700 cd         1 KUF      -0.152400
      9 C9          -0.7220    -0.0000     3.6870 c          1 KUF       0.610100
     10 C1           3.5880    -0.0010     1.1580 c3         1 KUF       0.066200
     11 N8          -2.0700     0.0000     3.6450 ns         1 KUF       0.036900
     12 O10         -0.1390    -0.0000     4.7560 o          1 KUF      -0.684500
     13 H4          -0.5450    -0.0000    -0.9360 ha         1 KUF       0.109000
     14 H3           1.9020    -0.0000    -0.9420 ha         1 KUF       0.104000
     15 H12          1.9920    -0.0000     3.3290 ha         1 KUF       0.128000
     16 H6          -2.7360    -0.0010     0.3610 ha         1 KUF       0.121000
     17 H11C         3.9270     0.2300     0.1550 hc         1 KUF       0.008033
     18 H12C         3.9540    -0.9780     1.4470 hc         1 KUF       0.008033
     19 H13C         3.9640     0.7450     1.8470 hc         1 KUF       0.008033
     20 H7          -3.8450    -0.0010     2.5030 h4         1 KUF       0.118000
     21 H8          -2.5790    -0.0010     4.5060 hn         1 KUF       0.168500
@<TRIPOS>BOND
     1     1     2 ar  
     2     1     4 ar  
     3     1    13 1   
     4     2     6 ar  
     5     2    14 1   
     6     3     5 ar  
     7     3     6 ar  
     8     3    15 1   
     9     4     5 ar  
    10     4     7 1   
    11     5     9 1   
    12     6    10 1   
    13     7     8 2   
    14     7    16 1   
    15     8    11 1   
    16     8    20 1   
    17     9    11 1   
    18     9    12 2   
    19    10    17 1   
    20    10    18 1   
    21    10    19 1   
    22    11    21 1   
@<TRIPOS>SUBSTRUCTURE
     1 KUF         1 TEMP              0 ****  ****    0 ROOT
