@<TRIPOS>MOLECULE
molecule
   21    22     1     0     0
SMALL
bcc


@<TRIPOS>ATOM
      1 C4           0.0000     0.0000     0.0000 ca         1 KUF      -0.135000
      2 C3           1.3680     0.0000     0.0000 ca         1 KUF      -0.095000
      3 C12          1.4270     0.0000     2.4040 ca         1 KUF      -0.058000
      4 C5          -0.6890     0.0000     1.2130 ca         1 KUF      -0.005800
      5 C11          0.0330     0.0000     2.4300 ca         1 KUF      -0.154600
      6 C2           2.0810     0.0000     1.1910 ca         1 KUF      -0.105300
      7 C6          -2.1520     0.0000     1.2730 cc         1 KUF      -0.206200
      8 C7          -2.7630    -0.0010     2.4700 cd         1 KUF      -0.010400
      9 C9          -0.7220    -0.0000     3.6870 c          1 KUF       0.707100
     10 C1           3.5880    -0.0010     1.1580 c3         1 KUF      -0.045800
     11 N8          -2.0700     0.0000     3.6450 ns         1 KUF      -0.437100
     12 O10         -0.1390    -0.0000     4.7560 o          1 KUF      -0.639500
     13 H4          -0.5450    -0.0000    -0.9360 ha         1 KUF       0.135000
     14 H3           1.9020    -0.0000    -0.9420 ha         1 KUF       0.131000
     15 H12          1.9920    -0.0000     3.3290 ha         1 KUF       0.156000
     16 H6          -2.7360    -0.0010     0.3610 ha         1 KUF       0.148000
     17 H11C         3.9270     0.2300     0.1550 hc         1 KUF       0.044700
     18 H12C         3.9540    -0.9780     1.4470 hc         1 KUF       0.044700
     19 H13C         3.9640     0.7450     1.8470 hc         1 KUF       0.044700
     20 H7          -3.8450    -0.0010     2.5030 h4         1 KUF       0.147000
     21 H8          -2.5790    -0.0010     4.5060 hn         1 KUF       0.333500
@<TRIPOS>BOND
     1     1     2 ar
     2     1     4 ar
     3     2     6 ar
     4     3     5 ar
     5     3     6 ar
     6     4     5 ar
     7     4     7 1
     8     5     9 1
     9     6    10 1
    10     7     8 2
    11     8    11 1
    12     9    11 1
    13     9    12 2
    14     1    13 1
    15     2    14 1
    16     3    15 1
    17     7    16 1
    18    10    17 1
    19    10    18 1
    20    10    19 1
    21     8    20 1
    22    11    21 1
@<TRIPOS>SUBSTRUCTURE
     1 KUF         1 TEMP              0 ****  ****    0 ROOT
