@<TRIPOS>MOLECULE
KV1
   61    60     1     0     0
SMALL
bcc


@<TRIPOS>ATOM
      1 C1        -74.3070 -235.4750 -100.1710 c3        1 KV1     -0.286000
      2 N1        -72.6610 -232.9150  -98.5370 n         1 KV1     -0.350000
      3 O1        -72.0170 -232.9060 -100.7300 o         1 KV1     -0.272000
      4 C2        -72.6280 -232.6610  -97.2200 c1        1 KV1      0.149000
      5 N2        -70.6380 -230.5390  -98.3900 n3        1 KV1     -0.234000
      6 O2        -71.9280 -231.7810  -96.5530 os        1 KV1     -0.156000
      7 C3        -72.0130 -232.3190  -99.6410 c2        1 KV1      0.249000
      8 N3        134.6080  386.8780  171.0290 n4        1 KV1     -0.144000
      9 O3        -70.7170 -228.9130  -93.8560 os        1 KV1     -0.168000
     10 C4        -71.4130 -230.9210  -99.5210 c3        1 KV1     -0.103000
     11 N4        133.2190  382.4390  170.1960 n2        1 KV1      0.041000
     12 C5        -69.2240 -233.9230  -98.1790 c1        1 KV1     -0.081000
     13 N5        134.0360  383.0890  170.9900 na        1 KV1     -0.011000
     14 C6        -69.4670 -232.7680  -97.9740 c1        1 KV1     -0.243000
     15 C7        -69.6660 -231.3890  -97.7040 cx        1 KV1      0.035000
     16 C9        -70.8180 -229.8170  -95.9740 c2        1 KV1     -0.196000
     17 C10       -70.9270 -230.0420  -94.6430 c2        1 KV1      0.065000
     18 C11       -70.4310 -227.7980  -94.7110 c3        1 KV1      0.022000
     19 C12       -71.4500 -226.8240  -94.7730 c1        1 KV1      0.186000
     20 C13       -72.3260 -226.1740  -95.4800 c2        1 KV1     -0.040000
     21 C14       -72.3440 -226.7380  -96.8570 c2        1 KV1     -0.143000
     22 C15       -71.4910 -227.7260  -97.1830 c2        1 KV1     -0.097000
     23 C16       -70.5100 -228.3790  -96.2760 c3        1 KV1      0.003000
     24 C18       134.0030  384.4880  170.7370 c2        1 KV1     -0.252000
     25 C19       133.0680  384.6820  169.6820 c2        1 KV1     -0.125000
     26 C20       132.5950  383.3700  169.3670 c2        1 KV1      0.031000
     27 C21       131.6550  383.0410  168.3870 c1        1 KV1     -0.169000
     28 C22       130.8500  382.7560  167.5490 c1        1 KV1     -0.072000
     29 H1        -73.2100 -233.7320  -98.7740 hn        1 KV1      0.283000
     30 H1A       -75.1000 -234.9000  -99.6430 hc        1 KV1      0.072500
     31 H1B       -73.6780 -236.0140  -99.4290 hc        1 KV1      0.072500
     32 HN1       -71.5270 -235.2970 -100.1000 ha        1 KV1      0.001667
     33 H2        -74.7830 -236.2140 -100.8520 hc        1 KV1      0.072500
     34 H2A       -73.6710 -234.7820 -100.7670 hc        1 KV1      0.072500
     35 HN3       133.6290  387.1570  171.1600 hn        1 KV1      0.268667
     36 H4        -72.2770 -230.1960  -99.6050 h1        1 KV1      0.146000
     37 H5        -69.0160 -234.9500  -98.3680 ha        1 KV1      0.247000
     38 H5A       -70.7460 -230.7820 -100.4270 h1        1 KV1      0.146000
     39 H6        135.2100  387.4950  171.5980 hn        1 KV1      0.268667
     40 H7        -71.4750 -228.1220  -98.2210 ha        1 KV1      0.217000
     41 H7A       -68.6920 -230.8650  -97.5160 h1        1 KV1      0.161000
     42 H10       -71.1410 -230.9460  -94.0560 h4        1 KV1      0.243000
     43 H12       -69.4010 -227.4280  -94.4580 h1        1 KV1      0.207000
     44 H13       -72.9840 -225.3280  -95.2150 ha        1 KV1      0.258000
     45 H14       -73.0720 -226.2820  -97.5470 ha        1 KV1      0.211000
     46 H15       -69.4700 -228.2520  -96.6870 hc        1 KV1      0.179000
     47 H19       132.7630  385.6080  169.2040 ha        1 KV1      0.176000
     48 H21       133.0770  389.5710  172.5550 ha        1 KV1      0.001667
     49 H21A      133.3700  389.0530  172.2290 ha        1 KV1      0.001667
     50 H22       135.6370  389.1350  172.6470 ha        1 KV1      0.001667
     51 H22A      136.2860  389.0430  172.8210 ha        1 KV1      0.001667
     52 H22B      130.1340  382.5070  166.8020 ha        1 KV1      0.248000
     53 H23       134.5990  382.9040  173.0060 h1        1 KV1      0.134667
     54 H23A      134.7240  381.3600  172.0130 h1        1 KV1      0.134667
     55 H23B      135.9480  382.7120  171.7750 h1        1 KV1      0.134667
     56 C8        -70.9150 -230.8740  -97.0000 cx        1 KV1      0.070000
     57 H121      -70.9740 -235.1180  -99.7510 ha        1 KV1      0.001667
     58 H32       134.8530  386.9790  170.0400 hn        1 KV1      0.268667
     59 C17       134.7960  385.4360  171.4590 c2        1 KV1      0.342000
     60 C23       134.8740  382.4730  172.0050 c3        1 KV1     -0.088000
     61 O4        135.6010  385.2720  172.3680 o         1 KV1     -0.196000
@<TRIPOS>BOND
     1    1   30 1   
     2    1   31 1   
     3    1   33 1   
     4    1   34 1   
     5    2    4 1   
     6    2    7 1   
     7    2   29 1   
     8    3    7 1   
     9    4    6 1   
    10    5   10 1   
    11    5   15 1   
    12    5   56 1   
    13    6   56 1   
    14    7   10 1   
    15    8   35 1   
    16    8   39 1   
    17    8   58 1   
    18    8   59 1   
    19    9   17 1   
    20    9   18 1   
    21   10   36 1   
    22   10   38 1   
    23   11   13 1   
    24   11   26 1   
    25   12   14 1   
    26   12   37 1   
    27   13   24 1   
    28   13   60 1   
    29   14   15 1   
    30   15   41 1   
    31   15   56 1   
    32   16   17 1   
    33   16   23 1   
    34   16   56 1   
    35   17   42 1   
    36   18   19 1   
    37   18   23 1   
    38   18   43 1   
    39   19   20 1   
    40   20   21 1   
    41   20   44 1   
    42   21   22 1   
    43   21   45 1   
    44   22   23 1   
    45   22   40 1   
    46   23   46 1   
    47   24   25 1   
    48   24   59 1   
    49   25   26 1   
    50   25   47 1   
    51   26   27 1   
    52   27   28 1   
    53   28   52 1   
    54   32   57 1   
    55   48   49 1   
    56   50   51 1   
    57   53   60 1   
    58   54   60 1   
    59   55   60 1   
    60   59   61 1   
@<TRIPOS>SUBSTRUCTURE
     1 KV1         1 TEMP              0 ****  ****    0 ROOT
