@<TRIPOS>MOLECULE
KV4
   69    73     1     0     0
SMALL
bcc


@<TRIPOS>ATOM
      1 C8           0.0000     0.0000     0.0000 c3         1 KV4       0.180100
      2 C13         -6.1430    -4.1100    -2.8730 c3         1 KV4       0.143800
      3 C12         -4.6250    -4.0260    -2.7000 c3         1 KV4      -0.029400
      4 C11         -4.2690    -2.7490    -1.9350 c3         1 KV4      -0.008400
      5 C10         -2.7520    -2.6640    -1.7610 c3         1 KV4       0.085700
      6 C9          -0.5210    -1.2270    -0.7510 c3         1 KV4       0.069700
      7 C14         -7.9370    -5.4510    -3.7930 c3         1 KV4       0.203100
      8 C2           1.1090     0.7160     4.6410 ca         1 KV4       0.231800
      9 C7           1.5410     0.0000     0.0000 c3         1 KV4       0.126100
     10 C6           1.9210     0.0000     1.5000 c3         1 KV4       0.132100
     11 C5           0.6270     0.5410     2.1620 c3         1 KV4       0.151800
     12 C4          -0.1330    -0.9940     4.0150 cc         1 KV4       0.269700
     13 C3           0.7560    -0.0600     5.7580 ca         1 KV4      -0.184200
     14 N5          -6.4840    -5.3360    -3.6070 n7         1 KV4      -0.584200
     15 S           -2.3300    -1.1510    -0.8540 ss         1 KV4      -0.386200
     16 O1           2.0410     1.1730    -0.6430 oh         1 KV4      -0.545800
     17 O            3.0230     0.8740     1.7480 oh         1 KV4      -0.534800
     18 O2          -0.4270    -0.0480     1.3710 os         1 KV4      -0.384600
     19 N4           0.5380     0.1000     3.5560 na         1 KV4       0.201000
     20 N2           1.8620     1.7970     4.8170 nb         1 KV4      -0.603000
     21 C1           2.2740     2.1390     6.0200 ca         1 KV4       0.633900
     22 N1           1.9690     1.4410     7.0990 nb         1 KV4      -0.656000
     23 N3          -0.0020    -1.0870     5.3060 nd         1 KV4      -0.494100
     24 C            1.2200     0.3460     7.0200 ca         1 KV4       0.596200
     25 N            0.9050    -0.3790     8.1570 nv         1 KV4      -0.645500
     26 H1          -0.3660     0.9060    -0.4670 h1         1 KV4       0.058700
     27 H2          -6.6170    -4.1290    -1.8990 h1         1 KV4       0.008700
     28 H3          -6.4920    -3.2470    -3.4280 h1         1 KV4       0.008700
     29 H4          -4.2760    -4.8880    -2.1440 hc         1 KV4       0.020700
     30 H5          -4.1510    -4.0070    -3.6730 hc         1 KV4       0.020700
     31 H6          -4.7440    -2.7670    -0.9610 hc         1 KV4       0.029700
     32 H7          -4.6180    -1.8860    -2.4900 hc         1 KV4       0.029700
     33 H8          -2.4030    -3.5270    -1.2070 h1         1 KV4       0.033200
     34 H9          -2.2780    -2.6450    -2.7350 h1         1 KV4       0.033200
     35 H10         -0.2270    -2.1260    -0.2230 h1         1 KV4       0.039700
     36 H11         -0.1030    -1.2430    -1.7510 h1         1 KV4       0.039700
     37 H12         -8.4230    -5.4780    -2.8250 h1         1 KV4       0.010700
     38 H13         -8.2980    -4.5970    -4.3540 h1         1 KV4       0.010700
     39 H15          1.9170    -0.8930    -0.4830 h1         1 KV4       0.013700
     40 H16          2.1330    -1.0060     1.8410 h1         1 KV4       0.021700
     41 H17          0.5920     1.6210     2.0960 h2         1 KV4       0.073700
     42 H18         -0.6930    -1.6850     3.3960 h5         1 KV4       0.042800
     43 H19         -6.1480    -6.1320    -3.1020 hn         1 KV4       0.255800
     44 H21          2.4520     0.9350    -1.4570 ho         1 KV4       0.390000
     45 H22          3.8140     0.3670     1.8330 ho         1 KV4       0.390000
     46 H23          2.8870     3.0250     6.1290 h5         1 KV4      -0.000900
     47 H24          0.0780    -0.1600     8.6770 hn         1 KV4       0.281800
     48 H25          1.5060    -1.1200     8.4610 hn         1 KV4       0.281800
     49 C15         -8.2480    -6.7170    -4.5480 ca         1 KV4      -0.095300
     50 C16         -8.4740    -7.8930    -3.8570 ca         1 KV4      -0.084000
     51 C17         -8.7600    -9.0560    -4.5440 ca         1 KV4      -0.098500
     52 C18         -8.8190    -9.0430    -5.9370 cp         1 KV4      -0.032000
     53 C19         -8.5890    -7.8550    -6.6270 ca         1 KV4      -0.098500
     54 C20         -8.3110    -6.6970    -5.9300 ca         1 KV4      -0.084000
     55 C21         -9.1240   -10.2900    -6.6810 cp         1 KV4      -0.027000
     56 C22         -9.1830   -10.2760    -8.0730 ca         1 KV4      -0.090500
     57 C23         -9.4670   -11.4390    -8.7600 ca         1 KV4      -0.095000
     58 C24         -9.6930   -12.6170    -8.0690 ca         1 KV4      -0.035600
     59 C25         -9.6350   -12.6350    -6.6860 ca         1 KV4      -0.095000
     60 C26         -9.3460   -11.4790    -5.9900 ca         1 KV4      -0.090500
     61 Cl1        -10.0490   -14.0760    -8.9400 cl         1 KV4      -0.028400
     62 H14         -8.4280    -7.9020    -2.7750 ha         1 KV4       0.106500
     63 H20         -8.9370    -9.9770    -4.0020 ha         1 KV4       0.112000
     64 H26         -8.6360    -7.8390    -7.7090 ha         1 KV4       0.112000
     65 H27         -8.1330    -5.7730    -6.4660 ha         1 KV4       0.106500
     66 H28         -9.0060    -9.3550    -8.6150 ha         1 KV4       0.115000
     67 H29         -9.5130   -11.4290    -9.8430 ha         1 KV4       0.114000
     68 H30         -9.8100   -13.5600    -6.1500 ha         1 KV4       0.114000
     69 H31         -9.3010   -11.4950    -4.9080 ha         1 KV4       0.115000
@<TRIPOS>BOND
     1     1     6 1   
     2     1     9 1   
     3     1    18 1   
     4     1    26 1   
     5     2     3 1   
     6     2    14 1   
     7     2    27 1   
     8     2    28 1   
     9     3     4 1   
    10     3    29 1   
    11     3    30 1   
    12     4     5 1   
    13     4    31 1   
    14     4    32 1   
    15     5    15 1   
    16     5    33 1   
    17     5    34 1   
    18     6    15 1   
    19     6    35 1   
    20     6    36 1   
    21     7    14 1   
    22     7    37 1   
    23     7    38 1   
    24     7    49 1   
    25     8    13 ar  
    26     8    19 1   
    27     8    20 ar  
    28     9    10 1   
    29     9    16 1   
    30     9    39 1   
    31    10    11 1   
    32    10    17 1   
    33    10    40 1   
    34    11    18 1   
    35    11    19 1   
    36    11    41 1   
    37    12    19 1   
    38    12    23 2   
    39    12    42 1   
    40    13    23 1   
    41    13    24 ar  
    42    14    43 1   
    43    16    44 1   
    44    17    45 1   
    45    20    21 ar  
    46    21    22 ar  
    47    21    46 1   
    48    22    24 ar  
    49    24    25 1   
    50    25    47 1   
    51    25    48 1   
    52    49    50 ar  
    53    49    54 ar  
    54    50    51 ar  
    55    50    62 1   
    56    51    52 ar  
    57    51    63 1   
    58    52    53 ar  
    59    52    55 1   
    60    53    54 ar  
    61    53    64 1   
    62    54    65 1   
    63    55    56 ar  
    64    55    60 ar  
    65    56    57 ar  
    66    56    66 1   
    67    57    58 ar  
    68    57    67 1   
    69    58    59 ar  
    70    58    61 1   
    71    59    60 ar  
    72    59    68 1   
    73    60    69 1   
@<TRIPOS>SUBSTRUCTURE
     1 KV4         1 TEMP              0 ****  ****    0 ROOT
