@<TRIPOS>MOLECULE
molecule
   69    73     1     0     0
SMALL
bcc


@<TRIPOS>ATOM
      1 C8           0.0000     0.0000     0.0000 c3         1 KV4       0.137100
      2 C13         -6.1430    -4.1100    -2.8730 c3         1 KV4       0.156800
      3 C12         -4.6250    -4.0260    -2.7000 c3         1 KV4      -0.080400
      4 C11         -4.2690    -2.7490    -1.9350 c3         1 KV4      -0.067400
      5 C10         -2.7520    -2.6640    -1.7610 c3         1 KV4       0.011700
      6 C9          -0.5210    -1.2270    -0.7510 c3         1 KV4       0.004700
      7 C14         -7.9370    -5.4510    -3.7930 c3         1 KV4       0.203100
      8 C2           1.1090     0.7160     4.6410 ca         1 KV4       0.448800
      9 C7           1.5410     0.0000     0.0000 c3         1 KV4       0.088100
     10 C6           1.9210     0.0000     1.5000 c3         1 KV4       0.098100
     11 C5           0.6270     0.5410     2.1620 c3         1 KV4       0.259800
     12 C4          -0.1330    -0.9940     4.0150 cc         1 KV4       0.443700
     13 C3           0.7560    -0.0600     5.7580 ca         1 KV4      -0.159200
     14 N5          -6.4840    -5.3360    -3.6070 n7         1 KV4      -0.816200
     15 S           -2.3300    -1.1510    -0.8540 ss         1 KV4      -0.321200
     16 O1           2.0410     1.1730    -0.6430 oh         1 KV4      -0.567800
     17 O            3.0230     0.8740     1.7480 oh         1 KV4      -0.554800
     18 O2          -0.4270    -0.0480     1.3710 os         1 KV4      -0.403600
     19 N4           0.5380     0.1000     3.5560 na         1 KV4      -0.257000
     20 N2           1.8620     1.7970     4.8170 nb         1 KV4      -0.741000
     21 C1           2.2740     2.1390     6.0200 ca         1 KV4       0.700900
     22 N1           1.9690     1.4410     7.0990 nb         1 KV4      -0.771000
     23 N3          -0.0020    -1.0870     5.3060 nd         1 KV4      -0.582100
     24 C            1.2200     0.3460     7.0200 ca         1 KV4       0.773200
     25 N            0.9050    -0.3790     8.1570 nv         1 KV4      -1.073500
     26 H1          -0.3660     0.9060    -0.4670 h1         1 KV4       0.091700
     27 H2          -6.6170    -4.1290    -1.8990 h1         1 KV4       0.034200
     28 H3          -6.4920    -3.2470    -3.4280 h1         1 KV4       0.034200
     29 H4          -4.2760    -4.8880    -2.1440 hc         1 KV4       0.049700
     30 H5          -4.1510    -4.0070    -3.6730 hc         1 KV4       0.049700
     31 H6          -4.7440    -2.7670    -0.9610 hc         1 KV4       0.056200
     32 H7          -4.6180    -1.8860    -2.4900 hc         1 KV4       0.056200
     33 H8          -2.4030    -3.5270    -1.2070 h1         1 KV4       0.056700
     34 H9          -2.2780    -2.6450    -2.7350 h1         1 KV4       0.056700
     35 H10         -0.2270    -2.1260    -0.2230 h1         1 KV4       0.064200
     36 H11         -0.1030    -1.2430    -1.7510 h1         1 KV4       0.064200
     37 H12         -8.4230    -5.4780    -2.8250 h1         1 KV4       0.039700
     38 H13         -8.2980    -4.5970    -4.3540 h1         1 KV4       0.039700
     39 H15          1.9170    -0.8930    -0.4830 h1         1 KV4       0.047700
     40 H16          2.1330    -1.0060     1.8410 h1         1 KV4       0.058700
     41 H17          0.5920     1.6210     2.0960 h2         1 KV4       0.115700
     42 H18         -0.6930    -1.6850     3.3960 h5         1 KV4       0.090800
     43 H19         -6.1480    -6.1320    -3.1020 hn         1 KV4       0.355800
     44 H21          2.4520     0.9350    -1.4570 ho         1 KV4       0.405000
     45 H22          3.8140     0.3670     1.8330 ho         1 KV4       0.406000
     46 H23          2.8870     3.0250     6.1290 h5         1 KV4       0.063100
     47 H24          0.0780    -0.1600     8.6770 hn         1 KV4       0.443800
     48 H25          1.5060    -1.1200     8.4610 hn         1 KV4       0.443800
     49 C15         -8.2480    -6.7170    -4.5480 ca         1 KV4      -0.082300
     50 C16         -8.4740    -7.8930    -3.8570 ca         1 KV4      -0.113500
     51 C17         -8.7600    -9.0560    -4.5440 ca         1 KV4      -0.118500
     52 C18         -8.8190    -9.0430    -5.9370 cp         1 KV4      -0.037000
     53 C19         -8.5890    -7.8550    -6.6270 ca         1 KV4      -0.118500
     54 C20         -8.3110    -6.6970    -5.9300 ca         1 KV4      -0.113500
     55 C21         -9.1240   -10.2900    -6.6810 cp         1 KV4      -0.031000
     56 C22         -9.1830   -10.2760    -8.0730 ca         1 KV4      -0.112500
     57 C23         -9.4670   -11.4390    -8.7600 ca         1 KV4      -0.119000
     58 C24         -9.6930   -12.6170    -8.0690 ca         1 KV4       0.028400
     59 C25         -9.6350   -12.6350    -6.6860 ca         1 KV4      -0.119000
     60 C26         -9.3460   -11.4790    -5.9900 ca         1 KV4      -0.112500
     61 Cl1        -10.0490   -14.0760    -8.9400 cl         1 KV4      -0.110400
     62 H14         -8.4280    -7.9020    -2.7750 ha         1 KV4       0.133500
     63 H20         -8.9370    -9.9770    -4.0020 ha         1 KV4       0.133500
     64 H26         -8.6360    -7.8390    -7.7090 ha         1 KV4       0.133500
     65 H27         -8.1330    -5.7730    -6.4660 ha         1 KV4       0.133500
     66 H28         -9.0060    -9.3550    -8.6150 ha         1 KV4       0.140000
     67 H29         -9.5130   -11.4290    -9.8430 ha         1 KV4       0.145000
     68 H30         -9.8100   -13.5600    -6.1500 ha         1 KV4       0.145000
     69 H31         -9.3010   -11.4950    -4.9080 ha         1 KV4       0.140000
@<TRIPOS>BOND
     1     7    14 1
     2    14     2 1
     3     2     3 1
     4     3     4 1
     5     4     5 1
     6     5    15 1
     7    15     6 1
     8     6     1 1
     9    23    12 2
    10    23    13 1
    11    12    19 1
    12     1    18 1
    13     1     9 1
    14    25    24 1
    15    18    11 1
    16    13    24 ar
    17    13     8 ar
    18     9    10 1
    19     9    16 1
    20    19    11 1
    21    19     8 1
    22    10    11 1
    23    10    17 1
    24    24    22 ar
    25     8    20 ar
    26    22    21 ar
    27    20    21 ar
    28     1    26 1
    29     2    27 1
    30     2    28 1
    31     3    29 1
    32     3    30 1
    33     4    31 1
    34     4    32 1
    35     5    33 1
    36     5    34 1
    37     6    35 1
    38     6    36 1
    39     7    37 1
    40     7    38 1
    41     9    39 1
    42    10    40 1
    43    11    41 1
    44    12    42 1
    45    14    43 1
    46    16    44 1
    47    17    45 1
    48    21    46 1
    49    25    47 1
    50    25    48 1
    51     7    49 1
    52    49    50 ar
    53    50    51 ar
    54    51    52 ar
    55    52    53 ar
    56    53    54 ar
    57    54    49 ar
    58    52    55 1
    59    55    56 ar
    60    56    57 ar
    61    57    58 ar
    62    58    59 ar
    63    59    60 ar
    64    60    55 ar
    65    58    61 1
    66    50    62 1
    67    51    63 1
    68    53    64 1
    69    54    65 1
    70    56    66 1
    71    57    67 1
    72    59    68 1
    73    60    69 1
@<TRIPOS>SUBSTRUCTURE
     1 KV4         1 TEMP              0 ****  ****    0 ROOT
