@<TRIPOS>MOLECULE
KVC
   53    57     1     0     0
SMALL
bcc


@<TRIPOS>ATOM
      1 C1          0.2570    0.4290   -0.1750 ca        1 KVC      0.624300
      2 C2          1.6640    0.1330   -0.1190 ca        1 KVC      0.248900
      3 N3          2.2750   -0.1550    1.0710 nb        1 KVC     -0.550000
      4 C4          1.5090   -0.1790    2.1550 ca        1 KVC      0.271900
      5 C5          0.0810    0.0470    2.1080 ca        1 KVC      0.514800
      6 N6         -0.5260    0.3620    0.9330 nb        1 KVC     -0.733000
      7 O7         -0.2270    0.7370   -1.4140 os        1 KVC     -0.472100
      8 C8         -1.4630    1.4770   -1.5960 c3        1 KVC      0.203400
      9 C9         -2.6720    0.5900   -1.4620 ca        1 KVC     -0.027300
     10 C10        -3.7510    0.7280   -0.5730 ca        1 KVC     -0.172600
     11 C11        -4.9330   -0.0120   -0.7810 ca        1 KVC     -0.077000
     12 C12        -5.0250   -0.9620   -1.7840 ca        1 KVC     -0.136000
     13 C13        -3.9030   -1.1910   -2.6100 ca        1 KVC      0.206900
     14 C14        -2.7500   -0.4030   -2.4510 ca        1 KVC     -0.169000
     15 C15        -3.7840    1.6770    0.5520 c         1 KVC      0.586700
     16 F16        -3.9430   -2.1400   -3.5620 f         1 KVC     -0.084900
     17 N17         2.4880    0.1390   -1.3330 n4        1 KVC     -0.788300
     18 C18        -1.4390    2.8030   -0.8820 c3        1 KVC     -0.142100
     19 C19         0.5730   -2.3050    6.0030 cc        1 KVC      0.035000
     20 C20        -0.3870   -1.9620    7.0020 cc        1 KVC     -0.053000
     21 C21        -1.3790   -1.0550    6.7230 cd        1 KVC     -0.079000
     22 C22        -1.4230   -0.4490    5.4310 cd        1 KVC      0.022700
     23 N23        -0.4140   -0.7620    4.4670 na        1 KVC      0.057700
     24 C24         0.5400   -1.7100    4.7470 cd        1 KVC     -0.071300
     25 N25        -2.3360    0.4440    4.9060 nc        1 KVC     -0.254600
     26 C26        -1.9230    0.6970    3.6240 cc        1 KVC      0.082400
     27 C27        -0.7140   -0.0210    3.3070 cd        1 KVC     -0.301900
     28 C28         1.5730   -3.2720    6.2830 cg        1 KVC      0.181800
     29 N29         2.3900   -4.0650    6.5210 n1        1 KVC     -0.241800
     30 C30        -2.6340    1.6750    2.7570 c3        1 KVC      0.198000
     31 N31        -3.7810    1.0850    1.9710 n4        1 KVC     -0.585200
     32 C32        -3.8260   -0.3920    2.0050 c3        1 KVC      0.085100
     33 O33        -3.8830    2.8930    0.5210 o         1 KVC     -0.405100
     34 H4          2.0450   -0.3340    3.1120 h4        1 KVC      0.080100
     35 H8         -1.3590    1.6980   -2.7150 h1        1 KVC      0.122700
     36 H11        -5.8220    0.1830   -0.1550 ha        1 KVC      0.159000
     37 H12        -5.9560   -1.5310   -1.9500 ha        1 KVC      0.197000
     38 H14        -1.9040   -0.5560   -3.1420 ha        1 KVC      0.173000
     39 HN17        2.0090    0.6950   -2.0540 hn        1 KVC      0.480133
     40 HN1A        3.4150    0.5460   -1.1380 hn        1 KVC      0.480133
     41 H18        -0.5200    3.3690   -1.1810 hc        1 KVC      0.074367
     42 H18A       -2.3320    3.4070   -1.1880 hc        1 KVC      0.074367
     43 H18B       -1.4370    2.7070    0.2260 hc        1 KVC      0.074367
     44 H20        -0.3220   -2.4430    7.9960 ha        1 KVC      0.198000
     45 H21        -2.1510   -0.7740    7.4600 ha        1 KVC      0.206000
     46 H24         1.2480   -1.9930    3.9470 h4        1 KVC      0.189000
     47 H30        -3.0660    2.5090    3.3950 hx        1 KVC      0.125200
     48 H30A       -1.9040    2.1480    2.0420 hx        1 KVC      0.125200
     49 H32        -4.7510   -0.7540    1.4780 hx        1 KVC      0.108367
     50 H32A       -2.9160   -0.8170    1.5070 hx        1 KVC      0.108367
     51 H32B       -3.8770   -0.7440    3.0720 hx        1 KVC      0.108367
     52 H173        2.6100   -0.8260   -1.6680 hn        1 KVC      0.480133
     53 H311       -4.6460    1.4250    2.4250 hn        1 KVC      0.463800
@<TRIPOS>BOND
     1    1    2 ar  
     2    1    6 ar  
     3    1    7 1   
     4    2    3 ar  
     5    2   17 1   
     6    3    4 ar  
     7    4    5 ar  
     8    4   34 1   
     9    5    6 ar  
    10    5   27 1   
    11    7    8 1   
    12    8    9 1   
    13    8   18 1   
    14    8   35 1   
    15    9   10 ar  
    16    9   14 ar  
    17   10   11 ar  
    18   10   15 1   
    19   11   12 ar  
    20   11   36 1   
    21   12   13 ar  
    22   12   37 1   
    23   13   14 ar  
    24   13   16 1   
    25   14   38 1   
    26   15   31 1   
    27   15   33 2   
    28   17   39 1   
    29   17   40 1   
    30   17   52 1   
    31   18   41 1   
    32   18   42 1   
    33   18   43 1   
    34   19   20 1   
    35   19   24 2   
    36   19   28 1   
    37   20   21 2   
    38   20   44 1   
    39   21   22 1   
    40   21   45 1   
    41   22   23 1   
    42   22   25 2   
    43   23   24 1   
    44   23   27 1   
    45   24   46 1   
    46   25   26 1   
    47   26   27 2   
    48   26   30 1   
    49   28   29 3   
    50   30   31 1   
    51   30   47 1   
    52   30   48 1   
    53   31   32 1   
    54   31   53 1   
    55   32   49 1   
    56   32   50 1   
    57   32   51 1   
@<TRIPOS>SUBSTRUCTURE
     1 KVC         1 TEMP              0 ****  ****    0 ROOT
