@<TRIPOS>MOLECULE
molecule
   62    64     1     0     0
SMALL
bcc


@<TRIPOS>ATOM
      1 N            0.0000     0.0000     0.0000 nv         1 KVY      -0.963200
      2 C1           1.4070     0.0000     0.0000 cc         1 KVY       0.075600
      3 N1           3.5060     0.0010    -0.6930 na         1 KVY      -0.007100
      4 O1           5.8410     0.0910     1.0060 o          1 KVY      -0.630100
      5 C2           2.2340     0.0000     1.1320 cc         1 KVY      -0.177000
      6 N2           4.6320    -0.1040     2.8590 ns         1 KVY      -0.439100
      7 O2           9.9640     0.3890     5.4000 o          1 KVY      -0.634100
      8 C3           3.5390    -0.0000     0.6830 cd         1 KVY      -0.193900
      9 N3           7.0910     0.0780     5.4440 na         1 KVY      -0.004100
     10 O3          15.8410     0.9830     4.1760 o          1 KVY      -0.625100
     11 C4           2.2080    -0.0050    -1.0980 cd         1 KVY      -0.151300
     12 N4           9.9990     0.7300     3.2040 ns         1 KVY      -0.435100
     13 O4          17.8100     0.2720     8.6180 o          1 KVY      -0.600100
     14 C5           4.6770     0.0020    -1.5750 c3         1 KVY       0.037600
     15 N5          13.4850     1.0800     2.5050 na         1 KVY      -0.002100
     16 C6           4.7420    -0.0010     1.5200 c          1 KVY       0.713700
     17 N6          14.6780     0.3540     5.9630 ns         1 KVY      -0.583900
     18 C7           5.7760     0.0060     3.6700 cc         1 KVY      -0.023400
     19 N7          16.6640    -0.4440    10.3780 ns         1 KVY      -0.590900
     20 C8           7.0890     0.2110     3.2230 cc         1 KVY      -0.159000
     21 C9           7.8960     0.2570     4.3410 cd         1 KVY      -0.189900
     22 C10          5.8070    -0.0780     5.0260 cd         1 KVY      -0.178300
     23 C12          9.3470     0.4620     4.3530 c          1 KVY       0.714700
     24 C13         11.4030     0.8170     3.1970 cc         1 KVY      -0.026400
     25 C14         12.2480     0.6470     4.3030 cc         1 KVY      -0.162000
     26 C15         13.5420     0.8140     3.8550 cd         1 KVY      -0.188900
     27 C16         12.1840     1.0800     2.1150 cd         1 KVY      -0.179300
     28 C18         14.7590     0.7240     4.6680 c          1 KVY       0.709700
     29 C19         15.8760     0.3700     6.8050 c3         1 KVY       0.131000
     30 C20         15.5130    -0.0910     8.2180 c3         1 KVY      -0.179400
     31 C21         16.7450    -0.0750     9.0840 c          1 KVY       0.660100
     32 C22         17.8630    -0.4280    11.2200 c3         1 KVY       0.103300
     33 HN          -0.5000     0.8670     0.0010 hn         1 KVY       0.423800
     34 HNA         -0.5000    -0.8670     0.0040 hn         1 KVY       0.423800
     35 HN7         15.7810    -0.7090    10.7680 hn         1 KVY       0.311500
     36 HN2          3.7400    -0.2910     3.2750 hn         1 KVY       0.327500
     37 HN4          9.4840     0.8780     2.3590 hn         1 KVY       0.332500
     38 HN6         13.8070     0.0310     6.3370 hn         1 KVY       0.319500
     39 H2           1.9100    -0.0000     2.1660 ha         1 KVY       0.146000
     40 H4           1.8680    -0.0050    -2.1270 h4         1 KVY       0.172000
     41 H8           7.4100     0.3190     2.1940 ha         1 KVY       0.188000
     42 H10          4.9500    -0.2370     5.6680 h4         1 KVY       0.167000
     43 H11          8.2350    -0.7730     6.9760 h1         1 KVY       0.059367
     44 H11A         8.0450     0.9840     7.0700 h1         1 KVY       0.059367
     45 H11B         6.6930    -0.0760     7.4920 h1         1 KVY       0.059367
     46 H14         11.9420     0.4260     5.3180 ha         1 KVY       0.186000
     47 H16         11.8270     1.2600     1.1080 h4         1 KVY       0.168000
     48 H17         15.3050     0.4760     1.6690 h1         1 KVY       0.060033
     49 H17A        15.1620     2.2130     1.9750 h1         1 KVY       0.060033
     50 H17B        14.2960     1.4790     0.6180 h1         1 KVY       0.060033
     51 H19         16.2770     1.3750     6.8440 h1         1 KVY       0.070200
     52 H19A        16.6200    -0.2990     6.3870 h1         1 KVY       0.070200
     53 H20         14.7690     0.5770     8.6350 hc         1 KVY       0.063200
     54 H20A        15.1120    -1.0970     8.1780 hc         1 KVY       0.063200
     55 H22         17.6060    -0.7560    12.2200 h1         1 KVY       0.042700
     56 H22A        18.6070    -1.0940    10.8010 h1         1 KVY       0.042700
     57 H22B        18.2610     0.5790    11.2610 h1         1 KVY       0.042700
     58 H5           5.2890    -0.8660    -1.3630 h1         1 KVY       0.059700
     59 H5A          4.3510    -0.0300    -2.6080 h1         1 KVY       0.059700
     60 H5B          5.2550     0.9020    -1.4060 h1         1 KVY       0.059700
     61 C11          7.5460     0.0520     6.8360 c3         1 KVY       0.039600
     62 C17         14.6370     1.3280     1.6350 c3         1 KVY       0.038600
@<TRIPOS>BOND
     1    34     1 1
     2    33     1 1
     3     1     2 1
     4     2     5 1
     5     2    11 2
     6    11     3 1
     7     8     3 1
     8     3    14 1
     9    16     4 2
    10    39     5 1
    11     5     8 2
    12    36     6 1
    13     6    18 1
    14     6    16 1
    15    23     7 2
    16     8    16 1
    17    21     9 1
    18     9    22 1
    19     9    61 1
    20    10    28 2
    21    11    40 1
    22    24    12 1
    23    37    12 1
    24    12    23 1
    25    13    31 2
    26    60    14 1
    27    58    14 1
    28    14    59 1
    29    26    15 1
    30    62    15 1
    31    15    27 1
    32    29    17 1
    33    17    38 1
    34    17    28 1
    35    20    18 1
    36    18    22 2
    37    32    19 1
    38    31    19 1
    39    19    35 1
    40    41    20 1
    41    20    21 2
    42    23    21 1
    43    22    42 1
    44    45    61 1
    45    61    43 1
    46    61    44 1
    47    25    24 1
    48    24    27 2
    49    26    25 2
    50    46    25 1
    51    28    26 1
    52    27    47 1
    53    49    62 1
    54    62    50 1
    55    62    48 1
    56    51    29 1
    57    52    29 1
    58    29    30 1
    59    31    30 1
    60    53    30 1
    61    30    54 1
    62    55    32 1
    63    32    57 1
    64    32    56 1
@<TRIPOS>SUBSTRUCTURE
     1 KVY         1 TEMP              0 ****  ****    0 ROOT
