@<TRIPOS>MOLECULE
KVY
   62    64     1     0     0
SMALL
bcc


@<TRIPOS>ATOM
      1 N            0.0000     0.0000     0.0000 nv         1 KVY      -0.514200
      2 C1           1.4070     0.0000     0.0000 cc         1 KVY      -0.049400
      3 N1           3.5060     0.0010    -0.6930 na         1 KVY       0.523900
      4 O1           5.8410     0.0910     1.0060 o          1 KVY      -0.685100
      5 C2           2.2340     0.0000     1.1320 cc         1 KVY      -0.154000
      6 N2           4.6320    -0.1040     2.8590 ns         1 KVY       0.032900
      7 O2           9.9640     0.3890     5.4000 o          1 KVY      -0.690100
      8 C3           3.5390    -0.0000     0.6830 cd         1 KVY      -0.393900
      9 N3           7.0910     0.0780     5.4440 na         1 KVY       0.529900
     10 O3          15.8410     0.9830     4.1760 o          1 KVY      -0.678100
     11 C4           2.2080    -0.0050    -1.0980 cd         1 KVY      -0.332300
     12 N4           9.9990     0.7300     3.2040 ns         1 KVY       0.038900
     13 O4          17.8100     0.2720     8.6180 o          1 KVY      -0.636100
     14 C5           4.6770     0.0020    -1.5750 c3         1 KVY      -0.033400
     15 N5          13.4850     1.0800     2.5050 na         1 KVY       0.531900
     16 C6           4.7420    -0.0010     1.5200 c          1 KVY       0.626700
     17 N6          14.6780     0.3540     5.9630 ns         1 KVY      -0.194900
     18 C7           5.7760     0.0060     3.6700 cc         1 KVY      -0.168400
     19 N7          16.6640    -0.4440    10.3780 ns         1 KVY      -0.200900
     20 C8           7.0890     0.2110     3.2230 cc         1 KVY      -0.141000
     21 C9           7.8960     0.2570     4.3410 cd         1 KVY      -0.390900
     22 C10          5.8070    -0.0780     5.0260 cd         1 KVY      -0.358300
     23 C12          9.3470     0.4620     4.3530 c          1 KVY       0.626700
     24 C13         11.4030     0.8170     3.1970 cc         1 KVY      -0.171400
     25 C14         12.2480     0.6470     4.3030 cc         1 KVY      -0.143000
     26 C15         13.5420     0.8140     3.8550 cd         1 KVY      -0.389900
     27 C16         12.1840     1.0800     2.1150 cd         1 KVY      -0.358300
     28 C18         14.7590     0.7240     4.6680 c          1 KVY       0.644700
     29 C19         15.8760     0.3700     6.8050 c3         1 KVY       0.063000
     30 C20         15.5130    -0.0910     8.2180 c3         1 KVY      -0.112400
     31 C21         16.7450    -0.0750     9.0840 c          1 KVY       0.572100
     32 C22         17.8630    -0.4280    11.2200 c3         1 KVY       0.088300
     33 HN          -0.5000     0.8670     0.0010 hn         1 KVY       0.262800
     34 HNA         -0.5000    -0.8670     0.0040 hn         1 KVY       0.262800
     35 HN7         15.7810    -0.7090    10.7680 hn         1 KVY       0.168500
     36 HN2          3.7400    -0.2910     3.2750 hn         1 KVY       0.164500
     37 HN4          9.4840     0.8780     2.3590 hn         1 KVY       0.169500
     38 HN6         13.8070     0.0310     6.3370 hn         1 KVY       0.182500
     39 H2           1.9100    -0.0000     2.1660 ha         1 KVY       0.123000
     40 H4           1.8680    -0.0050    -2.1270 h4         1 KVY       0.149000
     41 H8           7.4100     0.3190     2.1940 ha         1 KVY       0.174000
     42 H10          4.9500    -0.2370     5.6680 h4         1 KVY       0.148000
     43 H11          8.2350    -0.7730     6.9760 h1         1 KVY       0.031033
     44 H11A         8.0450     0.9840     7.0700 h1         1 KVY       0.031033
     45 H11B         6.6930    -0.0760     7.4920 h1         1 KVY       0.031033
     46 H14         11.9420     0.4260     5.3180 ha         1 KVY       0.172000
     47 H16         11.8270     1.2600     1.1080 h4         1 KVY       0.149000
     48 H17         15.3050     0.4760     1.6690 h1         1 KVY       0.032367
     49 H17A        15.1620     2.2130     1.9750 h1         1 KVY       0.032367
     50 H17B        14.2960     1.4790     0.6180 h1         1 KVY       0.032367
     51 H19         16.2770     1.3750     6.8440 h1         1 KVY       0.041700
     52 H19A        16.6200    -0.2990     6.3870 h1         1 KVY       0.041700
     53 H20         14.7690     0.5770     8.6350 hc         1 KVY       0.029200
     54 H20A        15.1120    -1.0970     8.1780 hc         1 KVY       0.029200
     55 H22         17.6060    -0.7560    12.2200 h1         1 KVY       0.009700
     56 H22A        18.6070    -1.0940    10.8010 h1         1 KVY       0.009700
     57 H22B        18.2610     0.5790    11.2610 h1         1 KVY       0.009700
     58 H5           5.2890    -0.8660    -1.3630 h1         1 KVY       0.031367
     59 H5A          4.3510    -0.0300    -2.6080 h1         1 KVY       0.031367
     60 H5B          5.2550     0.9020    -1.4060 h1         1 KVY       0.031367
     61 C11          7.5460     0.0520     6.8360 c3         1 KVY      -0.032400
     62 C17         14.6370     1.3280     1.6350 c3         1 KVY      -0.034400
@<TRIPOS>BOND
     1     1     2 1   
     2     1    33 1   
     3     1    34 1   
     4     2     5 1   
     5     2    11 2   
     6     3     8 1   
     7     3    11 1   
     8     3    14 1   
     9     4    16 2   
    10     5     8 2   
    11     5    39 1   
    12     6    16 1   
    13     6    18 1   
    14     6    36 1   
    15     7    23 2   
    16     8    16 1   
    17     9    21 1   
    18     9    22 1   
    19     9    61 1   
    20    10    28 2   
    21    11    40 1   
    22    12    23 1   
    23    12    24 1   
    24    12    37 1   
    25    13    31 2   
    26    14    58 1   
    27    14    59 1   
    28    14    60 1   
    29    15    26 1   
    30    15    27 1   
    31    15    62 1   
    32    17    28 1   
    33    17    29 1   
    34    17    38 1   
    35    18    20 1   
    36    18    22 2   
    37    19    31 1   
    38    19    32 1   
    39    19    35 1   
    40    20    21 2   
    41    20    41 1   
    42    21    23 1   
    43    22    42 1   
    44    24    25 1   
    45    24    27 2   
    46    25    26 2   
    47    25    46 1   
    48    26    28 1   
    49    27    47 1   
    50    29    30 1   
    51    29    51 1   
    52    29    52 1   
    53    30    31 1   
    54    30    53 1   
    55    30    54 1   
    56    32    55 1   
    57    32    56 1   
    58    32    57 1   
    59    43    61 1   
    60    44    61 1   
    61    45    61 1   
    62    48    62 1   
    63    49    62 1   
    64    50    62 1   
@<TRIPOS>SUBSTRUCTURE
     1 KVY         1 TEMP              0 ****  ****    0 ROOT
