@<TRIPOS>MOLECULE
molecule
   31    32     1     0     0
SMALL
bcc


@<TRIPOS>ATOM
      1 C1           0.0000     0.0000     0.0000 ca         1 KWB      -0.128000
      2 C2           1.3810     0.0000     0.0000 ca         1 KWB      -0.226000
      3 C3           2.0760     0.0000     1.2010 ca         1 KWB       0.137100
      4 C4           1.3700    -0.0000     2.4130 ca         1 KWB      -0.137600
      5 C5          -0.0290    -0.0000     2.3970 ca         1 KWB      -0.076000
      6 C6          -0.7010    -0.0000     1.1950 ca         1 KWB      -0.139300
      7 C7          -2.2090    -0.0010     1.1790 c3         1 KWB      -0.011400
      8 C8          -2.7110     1.2480     0.4520 c3         1 KWB      -0.071400
      9 C9          -4.2410     1.2480     0.4370 c3         1 KWB      -0.081400
     10 C10         -4.7430    -0.0010    -0.2900 c3         1 KWB      -0.078400
     11 C11         -4.2410    -1.2510     0.4370 c3         1 KWB      -0.081400
     12 C12         -2.7110    -1.2500     0.4520 c3         1 KWB      -0.071400
     13 C13          2.0960    -0.0010     3.6930 c          1 KWB       0.912200
     14 O14          1.4760    -0.0000     4.7470 o          1 KWB      -0.825800
     15 O15          3.3190    -0.0000     3.7020 o          1 KWB      -0.825800
     16 O16          3.4320    -0.0000     1.2030 oh         1 KWB      -0.464100
     17 H1          -0.5380     0.0000    -0.9400 ha         1 KWB       0.103000
     18 H2           1.9220     0.0000    -0.9380 ha         1 KWB       0.106000
     19 H5          -0.5820    -0.0000     3.3280 ha         1 KWB       0.151000
     20 H7          -2.5850    -0.0010     2.1950 hc         1 KWB       0.054700
     21 H8          -2.3560     2.1320     0.9690 hc         1 KWB       0.043950
     22 H8A         -2.3410     1.2450    -0.5660 hc         1 KWB       0.043950
     23 H9          -4.6110     1.2460     1.4550 hc         1 KWB       0.033200
     24 H9A         -4.5950     2.1320    -0.0800 hc         1 KWB       0.033200
     25 H10         -4.3690    -0.0010    -1.3070 hc         1 KWB       0.030200
     26 H10A        -5.8260    -0.0010    -0.2990 hc         1 KWB       0.030200
     27 H11         -4.6110    -1.2480     1.4550 hc         1 KWB       0.033200
     28 H11A        -4.5950    -2.1340    -0.0800 hc         1 KWB       0.033200
     29 H12         -2.3410    -1.2470    -0.5660 hc         1 KWB       0.043950
     30 H12A        -2.3560    -2.1340     0.9690 hc         1 KWB       0.043950
     31 HO16         3.7480     0.6940     0.6470 ho         1 KWB       0.389000
@<TRIPOS>BOND
     1     1     2 ar
     2     1     6 ar
     3     2     3 ar
     4     3     4 ar
     5     3    16 1
     6     4     5 ar
     7     4    13 1
     8     5     6 ar
     9     6     7 1
    10     7     8 1
    11     7    12 1
    12     8     9 1
    13     9    10 1
    14    10    11 1
    15    11    12 1
    16    13    14 1
    17    13    15 1
    18     1    17 1
    19     2    18 1
    20     5    19 1
    21     7    20 1
    22     8    21 1
    23     8    22 1
    24     9    23 1
    25     9    24 1
    26    10    25 1
    27    10    26 1
    28    11    27 1
    29    11    28 1
    30    12    29 1
    31    12    30 1
    32    16    31 1
@<TRIPOS>SUBSTRUCTURE
     1 KWB         1 TEMP              0 ****  ****    0 ROOT
