@<TRIPOS>MOLECULE
KWB
   31    32     1     0     0
SMALL
bcc


@<TRIPOS>ATOM
      1 C1          0.0160    0.0180   -0.1290 ca        1 KWB     -0.107000
      2 C2          1.4050    0.0350   -0.1410 ca        1 KWB     -0.212000
      3 C3          2.1160    0.0660    1.0750 ca        1 KWB      0.179100
      4 C4          1.4260    0.0800    2.3040 ca        1 KWB     -0.215600
      5 C5          0.0310    0.0630    2.2810 ca        1 KWB     -0.060000
      6 C6         -0.6870    0.0320    1.0800 ca        1 KWB     -0.163300
      7 C7         -2.1800    0.0150    1.1050 c3        1 KWB     -0.000400
      8 C8         -2.7590    1.2460    0.4160 c3        1 KWB     -0.072400
      9 C9         -4.2730    1.2270    0.4360 c3        1 KWB     -0.076400
     10 C10        -4.8180   -0.0410   -0.1900 c3        1 KWB     -0.073400
     11 C11        -4.2430   -1.2710    0.4810 c3        1 KWB     -0.076400
     12 C12        -2.7290   -1.2550    0.4620 c3        1 KWB     -0.072400
     13 C13         2.1300    0.1140    3.6460 c         1 KWB      0.917200
     14 O14         1.4270    0.1240    4.6930 o         1 KWB     -0.834800
     15 O15         3.4010    0.1290    3.6650 o         1 KWB     -0.834800
     16 O16         3.4780    0.0800    0.9570 oh        1 KWB     -0.553100
     17 H1         -0.5330   -0.0060   -1.0820 ha        1 KWB      0.104000
     18 H2          1.9620    0.0250   -1.0870 ha        1 KWB      0.122000
     19 H5         -0.4940    0.0740    3.2530 ha        1 KWB      0.152000
     20 H7         -2.5240    0.0300    2.1810 hc        1 KWB      0.049700
     21 H8         -2.3860    2.1680    0.9340 hc        1 KWB      0.042200
     22 H8A        -2.3960    1.2850   -0.6440 hc        1 KWB      0.042200
     23 H9         -4.6340    1.3040    1.4960 hc        1 KWB      0.030200
     24 H9A        -4.6680    2.1180   -0.1180 hc        1 KWB      0.030200
     25 H10        -4.5610   -0.0570   -1.2810 hc        1 KWB      0.027700
     26 H10A       -5.9360   -0.0520   -0.1070 hc        1 KWB      0.027700
     27 H11        -4.6020   -1.3180    1.5430 hc        1 KWB      0.030200
     28 H11A       -4.6160   -2.1910   -0.0400 hc        1 KWB      0.030200
     29 H12        -2.3350   -2.1470    1.0130 hc        1 KWB      0.042200
     30 H12A       -2.3650   -1.3230   -0.5970 hc        1 KWB      0.042200
     31 HO16        3.8750    0.1020    1.8550 ho        1 KWB      0.482000
@<TRIPOS>BOND
     1    1    2 ar  
     2    1    6 ar  
     3    1   17 1   
     4    2    3 ar  
     5    2   18 1   
     6    3    4 ar  
     7    3   16 1   
     8    4    5 ar  
     9    4   13 1   
    10    5    6 ar  
    11    5   19 1   
    12    6    7 1   
    13    7    8 1   
    14    7   12 1   
    15    7   20 1   
    16    8    9 1   
    17    8   21 1   
    18    8   22 1   
    19    9   10 1   
    20    9   23 1   
    21    9   24 1   
    22   10   11 1   
    23   10   25 1   
    24   10   26 1   
    25   11   12 1   
    26   11   27 1   
    27   11   28 1   
    28   12   29 1   
    29   12   30 1   
    30   13   14 1   
    31   13   15 1   
    32   16   31 1   
@<TRIPOS>SUBSTRUCTURE
     1 KWB         1 TEMP              0 ****  ****    0 ROOT
