@<TRIPOS>MOLECULE
KWT
   55    59     1     0     0
SMALL
bcc


@<TRIPOS>ATOM
      1 C1          0.0910   -0.0350    0.0310 c3        1 KWT      0.171100
      2 O1          1.5200   -0.1990    0.0590 os        1 KWT     -0.405900
      3 C9         -0.5790   -0.6780    1.2790 c3        1 KWT      0.016500
      4 C23        -0.2610    1.4490   -0.1060 c3        1 KWT      0.103400
      5 C2          2.2420    0.1560    1.1860 c         1 KWT      0.762200
      6 O2          3.4530    0.2090    0.9870 o         1 KWT     -0.556500
      7 C3          1.4930    0.3620    2.4120 cc        1 KWT     -0.314900
      8 C4          0.1100   -0.0440    2.4160 cc        1 KWT     -0.161600
      9 C19         1.7110    0.9740    3.6370 cd        1 KWT      0.368600
     10 C5         -0.4510    0.3930    3.5920 cd        1 KWT      0.177200
     11 C6         -1.8880    0.3590    3.8330 c         1 KWT      0.510800
     12 O5          0.5330    1.0000    4.3820 os        1 KWT     -0.308800
     13 O3         -2.4130    0.6700    4.9030 o         1 KWT     -0.494100
     14 C7         -2.6370   -0.0660    2.6120 ce        1 KWT     -0.147400
     15 O6         -2.6460   -0.1250   -0.8380 os        1 KWT     -0.448900
     16 C11        -2.9100   -0.9880    0.2860 c3        1 KWT      0.175300
     17 C21        -2.6560   -0.6880   -2.0920 c         1 KWT      0.638100
     18 C8         -2.0720   -0.4890    1.4460 c2        1 KWT     -0.040400
     19 C15        -4.1210    0.0470    2.6660 c3        1 KWT     -0.030500
     20 C10        -0.2740   -2.1810    1.2550 c3        1 KWT     -0.087100
     21 C12        -4.4310   -1.0300    0.4790 c3        1 KWT     -0.080400
     22 C13        -4.7790   -1.1540    1.9430 c3        1 KWT     -0.153000
     23 C14        -4.3430   -2.5050    2.4920 c3        1 KWT     -0.085100
     24 C18        -6.2490   -0.9770    2.3090 c         1 KWT      0.579100
     25 C16        -4.8800    0.1460    3.9880 c3        1 KWT     -0.065400
     26 C17        -6.3160   -0.2390    3.6290 c3        1 KWT     -0.189400
     27 O4         -7.2090   -1.3710    1.6550 o         1 KWT     -0.511100
     28 O7         -2.8480   -1.9010   -2.1880 o         1 KWT     -0.537000
     29 C22        -2.4110    0.3130   -3.1650 c3        1 KWT     -0.160100
     30 O8          0.0060    1.8060   -1.4600 os        1 KWT     -0.419600
     31 C24        -0.0420    3.2070   -1.6730 c3        1 KWT      0.114700
     32 HC1        -0.2020   -0.5920   -0.9040 h1        1 KWT      0.109700
     33 H231       -1.3520    1.6070    0.1070 h1        1 KWT      0.050200
     34 H232        0.3640    2.0680    0.5910 h1        1 KWT      0.050200
     35 H19         2.5710    1.4250    4.1310 h4        1 KWT      0.079100
     36 H11        -2.5560   -2.0360    0.0450 h1        1 KWT      0.089700
     37 H15        -4.3770    0.9820    2.0790 hc        1 KWT      0.068700
     38 H101       -0.6080   -2.6290    0.2890 hc        1 KWT      0.058367
     39 H102        0.8290   -2.3370    1.3510 hc        1 KWT      0.058367
     40 H103       -0.7910   -2.6970    2.0980 hc        1 KWT      0.058367
     41 H121       -4.8430   -1.8970   -0.1010 hc        1 KWT      0.073700
     42 H122       -4.8880   -0.0960    0.0560 hc        1 KWT      0.073700
     43 H141       -3.2480   -2.6560    2.3320 hc        1 KWT      0.047700
     44 H142       -4.8990   -3.3190    1.9670 hc        1 KWT      0.047700
     45 H143       -4.5540   -2.5690    3.5870 hc        1 KWT      0.047700
     46 H161       -4.8200    1.1770    4.4130 hc        1 KWT      0.067200
     47 H162       -4.4570   -0.5570    4.7480 hc        1 KWT      0.067200
     48 H171       -6.9650    0.6660    3.5190 hc        1 KWT      0.079200
     49 H172       -6.7710   -0.8960    4.4110 hc        1 KWT      0.079200
     50 H221       -3.3260    0.9400   -3.2990 hc        1 KWT      0.086033
     51 H222       -1.5540    0.9760   -2.8780 hc        1 KWT      0.086033
     52 H223       -2.1790   -0.2200   -4.1190 hc        1 KWT      0.086033
     53 H241        0.1740    3.3280   -2.7640 h1        1 KWT      0.037367
     54 H242       -1.0560    3.6080   -1.4240 h1        1 KWT      0.037367
     55 H243        0.7350    3.7270   -1.0600 h1        1 KWT      0.037367
@<TRIPOS>BOND
     1    1    2 1   
     2    1    3 1   
     3    1    4 1   
     4    1   32 1   
     5    2    5 1   
     6    3    8 1   
     7    3   18 1   
     8    3   20 1   
     9    4   30 1   
    10    4   33 1   
    11    4   34 1   
    12    5    6 2   
    13    5    7 1   
    14    7    8 1   
    15    7    9 2   
    16    8   10 2   
    17    9   12 1   
    18    9   35 1   
    19   10   11 1   
    20   10   12 1   
    21   11   13 2   
    22   11   14 1   
    23   14   18 2   
    24   14   19 1   
    25   15   16 1   
    26   15   17 1   
    27   16   18 1   
    28   16   21 1   
    29   16   36 1   
    30   17   28 2   
    31   17   29 1   
    32   19   22 1   
    33   19   25 1   
    34   19   37 1   
    35   20   38 1   
    36   20   39 1   
    37   20   40 1   
    38   21   22 1   
    39   21   41 1   
    40   21   42 1   
    41   22   23 1   
    42   22   24 1   
    43   23   43 1   
    44   23   44 1   
    45   23   45 1   
    46   24   26 1   
    47   24   27 2   
    48   25   26 1   
    49   25   46 1   
    50   25   47 1   
    51   26   48 1   
    52   26   49 1   
    53   29   50 1   
    54   29   51 1   
    55   29   52 1   
    56   30   31 1   
    57   31   53 1   
    58   31   54 1   
    59   31   55 1   
@<TRIPOS>SUBSTRUCTURE
     1 KWT         1 TEMP              0 ****  ****    0 ROOT
