@<TRIPOS>MOLECULE
molecule
   48    50     1     0     0
SMALL
bcc


@<TRIPOS>ATOM
      1 N1           0.0000     0.0000     0.0000 nb         1 KWZ      -0.718000
      2 C2           1.3290     0.0000     0.0000 cp         1 KWZ       0.521800
      3 C3           2.0060     0.0000     1.2240 ca         1 KWZ      -0.359600
      4 C4           1.2600    -0.0010     2.3910 ca         1 KWZ       0.494600
      5 N5          -0.0600    -0.0010     2.3140 nb         1 KWZ      -0.708000
      6 C6          -0.6760    -0.0000     1.1400 ca         1 KWZ       0.797000
      7 C7           2.0820     0.0000    -1.2770 cp         1 KWZ      -0.179500
      8 C8           1.9450    -0.0020     3.7330 c3         1 KWZ      -0.118700
      9 C9           1.4400     1.1800     4.5640 c3         1 KWZ      -0.096400
     10 C10          2.1350     1.1790     5.9270 c3         1 KWZ       0.113800
     11 N11          1.6500     2.3130     6.7250 n3         1 KWZ      -0.516600
     12 C12          1.4000     0.0010    -2.4930 ca         1 KWZ      -0.045000
     13 C13          2.1050     0.0010    -3.6780 ca         1 KWZ      -0.173300
     14 C14          3.4890     0.0020    -3.6620 ca         1 KWZ      -0.040000
     15 C15          4.1720     0.0020    -2.4590 ca         1 KWZ      -0.142000
     16 C16          3.4760     0.0070    -1.2670 ca         1 KWZ      -0.109000
     17 C17          1.3690     0.0020    -4.9930 c3         1 KWZ       0.677200
     18 F18          1.1400     1.3200    -5.3990 f          1 KWZ      -0.219967
     19 F19          2.1380    -0.6580    -5.9580 f          1 KWZ      -0.219967
     20 F20          0.1440    -0.6590    -4.8410 f          1 KWZ      -0.219967
     21 C21          2.4590     2.4860     7.9380 c3         1 KWZ       0.026300
     22 C22          2.0200     3.7570     8.6680 c3         1 KWZ      -0.230400
     23 C23          0.5370     3.6460     9.0320 c3         1 KWZ      -0.131400
     24 C24         -0.2780     3.4180     7.7560 c3         1 KWZ      -0.230400
     25 C25          0.2280     2.1550     7.0530 c3         1 KWZ       0.026300
     26 C26         -2.1070     0.0000     1.1030 cg         1 KWZ       0.157800
     27 N27         -3.2430    -0.0050     1.0920 n1         1 KWZ      -0.310800
     28 H3           3.0730    -0.1720     1.1490 ha         1 KWZ       0.155000
     29 H8           3.0160     0.1440     3.7990 hc         1 KWZ       0.064200
     30 H8A          1.7940    -0.9870     4.1580 hc         1 KWZ       0.064200
     31 H9           0.4610     1.2510     5.0210 hc         1 KWZ       0.073700
     32 H9A          1.6710     2.0960     4.0330 hc         1 KWZ       0.073700
     33 H10          3.1030     0.6920     5.9460 h1         1 KWZ       0.070700
     34 H10A         1.4950     0.4480     6.4070 h1         1 KWZ       0.070700
     35 H12          0.3950    -0.3370    -2.2690 ha         1 KWZ       0.185000
     36 H14          3.9820     0.3420    -4.5650 ha         1 KWZ       0.152000
     37 H15          5.1570     0.2030    -2.0570 ha         1 KWZ       0.155000
     38 H16          4.0350     0.0400    -0.3400 ha         1 KWZ       0.134000
     39 H21          3.4790     2.2000     7.7110 h1         1 KWZ       0.076950
     40 H21A         1.9680     3.4050     8.2350 h1         1 KWZ       0.076950
     41 H22          1.1270     3.4370     9.1920 hc         1 KWZ       0.053200
     42 H22A         2.8760     3.7390     9.3320 hc         1 KWZ       0.053200
     43 H23         -0.0800     3.0090     8.4100 hc         1 KWZ       0.117700
     44 H23A         0.2010     4.5210     9.5740 hc         1 KWZ       0.117700
     45 H24         -1.3410     3.2100     7.7660 hc         1 KWZ       0.053200
     46 H24A         0.0340     2.5240     7.2300 hc         1 KWZ       0.053200
     47 H25         -0.1640     3.1230     7.3390 h1         1 KWZ       0.076950
     48 H25A        -0.0650     2.1870     6.0100 h1         1 KWZ       0.076950
@<TRIPOS>BOND
     1     1     2 ar
     2     1     6 ar
     3     2     3 ar
     4     2     7 1
     5     3     4 ar
     6     4     5 ar
     7     4     8 1
     8     5     6 ar
     9     6    26 1
    10     7    12 ar
    11     7    16 ar
    12     8     9 1
    13     9    10 1
    14    10    11 1
    15    11    21 1
    16    11    25 1
    17    12    13 ar
    18    13    14 ar
    19    13    17 1
    20    14    15 ar
    21    15    16 ar
    22    17    18 1
    23    17    19 1
    24    17    20 1
    25    21    22 1
    26    22    23 1
    27    23    24 1
    28    24    25 1
    29    26    27 3
    30     3    28 1
    31     8    29 1
    32     8    30 1
    33     9    31 1
    34     9    32 1
    35    10    33 1
    36    10    34 1
    37    12    35 1
    38    14    36 1
    39    15    37 1
    40    16    38 1
    41    21    39 1
    42    21    40 1
    43    22    41 1
    44    22    42 1
    45    23    43 1
    46    23    44 1
    47    24    45 1
    48    24    46 1
    49    25    47 1
    50    25    48 1
@<TRIPOS>SUBSTRUCTURE
     1 KWZ         1 TEMP              0 ****  ****    0 ROOT
