@<TRIPOS>MOLECULE
KWZ
   48    53     1     0     0
SMALL
bcc


@<TRIPOS>ATOM
      1 N1           0.0000     0.0000     0.0000 n2         1 KWZ      -0.070000
      2 C2           1.3290     0.0000     0.0000 c2         1 KWZ       0.038000
      3 C3           2.0060     0.0000     1.2240 c2         1 KWZ      -0.202000
      4 C4           1.2600    -0.0010     2.3910 c2         1 KWZ       0.019000
      5 N5          -0.0600    -0.0010     2.3140 n2         1 KWZ      -0.061000
      6 C6          -0.6760    -0.0000     1.1400 c2         1 KWZ       0.115000
      7 C7           2.0820     0.0000    -1.2770 ca         1 KWZ      -0.082000
      8 C8           1.9450    -0.0020     3.7330 c3         1 KWZ      -0.039000
      9 C9           1.4400     1.1800     4.5640 c3         1 KWZ      -0.143000
     10 C10          2.1350     1.1790     5.9270 c3         1 KWZ      -0.173000
     11 N11          1.6500     2.3130     6.7250 n3         1 KWZ       0.269000
     12 C12          1.4000     0.0010    -2.4930 ca         1 KWZ      -0.015000
     13 C13          2.1050     0.0010    -3.6780 ca         1 KWZ      -0.190000
     14 C14          3.4890     0.0020    -3.6620 ca         1 KWZ       0.003000
     15 C15          4.1720     0.0020    -2.4590 ca         1 KWZ      -0.116000
     16 C16          3.4760     0.0070    -1.2670 ca         1 KWZ      -0.088000
     17 C17          1.3690     0.0020    -4.9930 c3         1 KWZ       0.421000
     18 F18          1.1400     1.3200    -5.3990 f          1 KWZ      -0.134667
     19 F19          2.1380    -0.6580    -5.9580 f          1 KWZ      -0.134667
     20 F20          0.1440    -0.6590    -4.8410 f          1 KWZ      -0.134667
     21 C21          2.4590     2.4860     7.9380 c3         1 KWZ      -0.497000
     22 C22          2.0200     3.7570     8.6680 c3         1 KWZ      -0.168000
     23 C23          0.5370     3.6460     9.0320 DU         1 KWZ      -0.052000
     24 C24         -0.2780     3.4180     7.7560 DU         1 KWZ       0.067000
     25 C25          0.2280     2.1550     7.0530 c3         1 KWZ       0.138000
     26 C26         -2.1070     0.0000     1.1030 c1         1 KWZ      -0.101000
     27 N27         -3.2430    -0.0050     1.0920 n1         1 KWZ      -0.006000
     28 H3           3.0730    -0.1720     1.1490 ha         1 KWZ       0.138000
     29 H8           3.0160     0.1440     3.7990 hc         1 KWZ       0.067500
     30 H8A          1.7940    -0.9870     4.1580 hc         1 KWZ       0.067500
     31 H9           0.4610     1.2510     5.0210 hc         1 KWZ       0.087000
     32 H9A          1.6710     2.0960     4.0330 hc         1 KWZ       0.087000
     33 H10          3.1030     0.6920     5.9460 h1         1 KWZ       0.087000
     34 H10A         1.4950     0.4480     6.4070 h1         1 KWZ       0.087000
     35 H12          0.3950    -0.3370    -2.2690 ha         1 KWZ       0.153000
     36 H14          3.9820     0.3420    -4.5650 ha         1 KWZ       0.117000
     37 H15          5.1570     0.2030    -2.0570 ha         1 KWZ       0.126000
     38 H16          4.0350     0.0400    -0.3400 ha         1 KWZ       0.110000
     39 H21          3.4790     2.2000     7.7110 h1         1 KWZ       0.114000
     40 H21A         1.9680     3.4050     8.2350 h1         1 KWZ       0.114000
     41 H22          1.1270     3.4370     9.1920 DU         1 KWZ       0.107000
     42 H22A         2.8760     3.7390     9.3320 hc         1 KWZ       0.133000
     43 H23         -0.0800     3.0090     8.4100 DU         1 KWZ       0.082000
     44 H23A         0.2010     4.5210     9.5740 ha         1 KWZ       0.088000
     45 H24         -1.3410     3.2100     7.7660 ha         1 KWZ       0.092000
     46 H24A         0.0340     2.5240     7.2300 DU         1 KWZ      -0.419000
     47 H25         -0.1640     3.1230     7.3390 DU         1 KWZ      -0.144000
     48 H25A        -0.0650     2.1870     6.0100 h1         1 KWZ       0.040000
@<TRIPOS>BOND
     1     1     2 1   
     2     1     6 1   
     3     2     3 1   
     4     2     7 1   
     5     3     4 1   
     6     3    28 1   
     7     4     5 1   
     8     4     8 1   
     9     5     6 1   
    10     6    26 1   
    11     7    12 1   
    12     7    16 1   
    13     8     9 1   
    14     8    29 1   
    15     8    30 1   
    16     9    10 1   
    17     9    31 1   
    18     9    32 1   
    19    10    11 1   
    20    10    33 1   
    21    10    34 1   
    22    11    21 1   
    23    11    25 1   
    24    12    13 1   
    25    12    35 1   
    26    13    14 1   
    27    13    17 1   
    28    14    15 1   
    29    14    36 1   
    30    15    16 1   
    31    15    37 1   
    32    16    38 1   
    33    17    18 1   
    34    17    19 1   
    35    17    20 1   
    36    21    22 1   
    37    21    39 1   
    38    21    40 1   
    39    22    23 1   
    40    22    41 1   
    41    22    42 1   
    42    23    24 1   
    43    23    41 1   
    44    23    43 1   
    45    23    44 1   
    46    24    25 1   
    47    24    43 1   
    48    24    45 1   
    49    24    46 1   
    50    25    47 1   
    51    25    48 1   
    52    26    27 1   
    53    46    47 1   
@<TRIPOS>SUBSTRUCTURE
     1 KWZ         1 TEMP              0 ****  ****    0 ROOT
