@<TRIPOS>MOLECULE
KX1
   54    60     1     0     0
SMALL
bcc


@<TRIPOS>ATOM
      1 N1           0.0000     0.0000     0.0000 n2         1 KX1      -0.075000
      2 C2           1.3220     0.0000     0.0000 c2         1 KX1       0.001000
      3 C3           1.9990     0.0000     1.2120 c2         1 KX1      -0.197000
      4 C4           1.2580    -0.0000     2.3860 c2         1 KX1       0.028000
      5 N5          -0.0620    -0.0010     2.3150 n2         1 KX1      -0.094000
      6 C6          -0.6780    -0.0000     1.1400 c2         1 KX1       0.105000
      7 C7           1.9490    -0.0020     3.7240 c3         1 KX1      -0.272000
      8 C8           1.4480     1.1800     4.5570 c3         1 KX1      -0.009000
      9 C9           2.1520     1.1780     5.9170 c3         1 KX1      -0.233000
     10 C10          2.0840     0.0000    -1.2990 c3         1 KX1       0.011000
     11 C11          2.4260     1.3720    -1.6450 c3         1 KX1      -0.147000
     12 C12          3.1550     1.4720    -3.0010 c3         1 KX1      -0.120000
     13 C13          3.3300    -0.8950    -1.1470 c3         1 KX1      -0.055000
     14 C14          4.6010     1.1140    -2.7950 c3         1 KX1      -0.126000
     15 C15          3.7940    -1.3070    -2.5180 c3         1 KX1      -0.368000
     16 C16          4.8860    -0.3740    -3.0760 DU         1 KX1      -0.216000
     17 C17         -2.1090    -0.0000     1.1010 c1         1 KX1      -0.089000
     18 N18          1.6710     2.3120     6.7180 n3         1 KX1      -0.007000
     19 N19         -3.2450    -0.0090     1.0880 n1         1 KX1      -0.027000
     20 C20          2.4850     2.4860     7.9270 c3         1 KX1      -0.045000
     21 C21          2.0500     3.7580     8.6580 c3         1 KX1      -0.310000
     22 C22          0.5690     3.6460     9.0300 DU         1 KX1      -0.332000
     23 C23         -0.2530     3.4170     7.7580 DU         1 KX1       0.138000
     24 C24          0.2490     2.1560     7.0520 DU         1 KX1       0.184000
     25 H3           3.0770    -0.0980     1.2460 ha         1 KX1       0.137000
     26 H7           1.2300    -0.1320     4.5230 hc         1 KX1       0.142000
     27 H7A          2.8580    -0.5890     3.6740 hc         1 KX1       0.142000
     28 H8           1.3730     1.9400     3.7890 hc         1 KX1       0.064500
     29 H8A          0.4400     1.0870     4.9420 hc         1 KX1       0.064500
     30 H9           2.8600     0.4260     6.2430 h1         1 KX1       0.096500
     31 H9A          2.9080     1.9480     5.8260 h1         1 KX1       0.096500
     32 H10          1.4550    -0.4090    -2.0800 hc         1 KX1       0.096000
     33 H11          1.5990     2.0100    -1.9320 hc         1 KX1       0.064500
     34 H11A         3.1160     1.9660    -1.0570 hc         1 KX1       0.064500
     35 H12          2.3010     1.2400    -3.6260 hc         1 KX1       0.062500
     36 H12A         3.2660     2.5480    -3.0700 hc         1 KX1       0.062500
     37 H13          3.0460    -1.9370    -1.0570 hc         1 KX1       0.068500
     38 H13A         4.0670    -0.6920    -0.3790 hc         1 KX1       0.068500
     39 H14          5.1710     1.1820    -3.7130 hc         1 KX1       0.086500
     40 H14A         4.8890     1.3610    -1.7800 hc         1 KX1       0.086500
     41 H15          4.8110    -1.3370    -2.8910 DU         1 KX1       0.178000
     42 H15A         3.2800    -2.0750    -3.0830 hc         1 KX1       0.114000
     43 H16          5.7380    -0.3380    -3.7440 ha         1 KX1       0.090500
     44 H16A         5.1500    -0.8060    -2.1180 ha         1 KX1       0.090500
     45 H20          3.5350     2.7440     7.8580 h1         1 KX1       0.059000
     46 H20A         2.4370     1.8270     8.7850 h1         1 KX1       0.059000
     47 H21          1.0770     3.9340     9.1010 DU         1 KX1       0.297000
     48 H21A         2.7650     4.0680     9.4110 hc         1 KX1       0.086000
     49 H22          0.0810     3.1870     8.1790 DU         1 KX1      -0.195000
     50 H22A        -0.1040     4.2590     9.6170 ha         1 KX1       0.157000
     51 H23          0.1570     2.4240     7.6180 DU         1 KX1      -0.159000
     52 H23A        -1.3260     3.3450     7.8910 ha         1 KX1       0.039000
     53 H24          0.3100     1.1460     7.4410 ha         1 KX1       0.017500
     54 H24A        -0.0840     1.7620     6.1000 ha         1 KX1       0.017500
@<TRIPOS>BOND
     1     1     2 1   
     2     1     6 1   
     3     2     3 1   
     4     2    10 1   
     5     3     4 1   
     6     3    25 1   
     7     4     5 1   
     8     4     7 1   
     9     5     6 1   
    10     6    17 1   
    11     7     8 1   
    12     7    26 1   
    13     7    27 1   
    14     8     9 1   
    15     8    28 1   
    16     8    29 1   
    17     9    18 1   
    18     9    30 1   
    19     9    31 1   
    20    10    11 1   
    21    10    13 1   
    22    10    32 1   
    23    11    12 1   
    24    11    33 1   
    25    11    34 1   
    26    12    14 1   
    27    12    35 1   
    28    12    36 1   
    29    13    15 1   
    30    13    37 1   
    31    13    38 1   
    32    14    16 1   
    33    14    39 1   
    34    14    40 1   
    35    15    16 1   
    36    15    41 1   
    37    15    42 1   
    38    16    41 1   
    39    16    43 1   
    40    16    44 1   
    41    17    19 1   
    42    18    20 1   
    43    18    24 1   
    44    20    21 1   
    45    20    45 1   
    46    20    46 1   
    47    21    22 1   
    48    21    47 1   
    49    21    48 1   
    50    22    23 1   
    51    22    47 1   
    52    22    49 1   
    53    22    50 1   
    54    23    24 1   
    55    23    49 1   
    56    23    51 1   
    57    23    52 1   
    58    24    51 1   
    59    24    53 1   
    60    24    54 1   
@<TRIPOS>SUBSTRUCTURE
     1 KX1         1 TEMP              0 ****  ****    0 ROOT
