@<TRIPOS>MOLECULE
molecule
   54    56     1     0     0
SMALL
bcc


@<TRIPOS>ATOM
      1 N1           0.0000     0.0000     0.0000 nb         1 KX1      -0.718000
      2 C2           1.3220     0.0000     0.0000 ca         1 KX1       0.476600
      3 C3           1.9990     0.0000     1.2120 ca         1 KX1      -0.356600
      4 C4           1.2580    -0.0000     2.3860 ca         1 KX1       0.492600
      5 N5          -0.0620    -0.0010     2.3150 nb         1 KX1      -0.738000
      6 C6          -0.6780    -0.0000     1.1400 ca         1 KX1       0.782000
      7 C7           1.9490    -0.0020     3.7240 c3         1 KX1      -0.314700
      8 C8           1.4480     1.1800     4.5570 c3         1 KX1       0.008600
      9 C9           2.1520     1.1780     5.9170 c3         1 KX1       0.018800
     10 C10          2.0840     0.0000    -1.2990 c3         1 KX1      -0.067000
     11 C11          2.4260     1.3720    -1.6450 c3         1 KX1      -0.067900
     12 C12          3.1550     1.4720    -3.0010 c3         1 KX1      -0.230900
     13 C13          3.3300    -0.8950    -1.1470 c3         1 KX1      -0.067900
     14 C14          4.6010     1.1140    -2.7950 c3         1 KX1      -0.132900
     15 C15          3.7940    -1.3070    -2.5180 c3         1 KX1      -0.230900
     16 C16          4.8860    -0.3740    -3.0760 c3         1 KX1      -0.132900
     17 C17         -2.1090    -0.0000     1.1010 cg         1 KX1       0.166800
     18 N18          1.6710     2.3120     6.7180 n3         1 KX1      -0.625600
     19 N19         -3.2450    -0.0090     1.0880 n1         1 KX1      -0.331800
     20 C20          2.4850     2.4860     7.9270 c3         1 KX1       0.204800
     21 C21          2.0500     3.7580     8.6580 c3         1 KX1      -0.205400
     22 C22          0.5690     3.6460     9.0300 c3         1 KX1      -0.364400
     23 C23         -0.2530     3.4170     7.7580 c3         1 KX1      -0.205400
     24 C24          0.2490     2.1560     7.0520 c3         1 KX1       0.204800
     25 H3           3.0770    -0.0980     1.2460 ha         1 KX1       0.153000
     26 H7           1.2300    -0.1320     4.5230 hc         1 KX1       0.128700
     27 H7A          2.8580    -0.5890     3.6740 hc         1 KX1       0.128700
     28 H8           1.3730     1.9400     3.7890 hc         1 KX1       0.056700
     29 H8A          0.4400     1.0870     4.9420 hc         1 KX1       0.056700
     30 H9           2.8600     0.4260     6.2430 h1         1 KX1       0.087700
     31 H9A          2.9080     1.9480     5.8260 h1         1 KX1       0.087700
     32 H10          1.4550    -0.4090    -2.0800 hc         1 KX1       0.088700
     33 H11          1.5990     2.0100    -1.9320 hc         1 KX1       0.051450
     34 H11A         3.1160     1.9660    -1.0570 hc         1 KX1       0.051450
     35 H12          2.3010     1.2400    -3.6260 hc         1 KX1       0.097950
     36 H12A         3.2660     2.5480    -3.0700 hc         1 KX1       0.097950
     37 H13          3.0460    -1.9370    -1.0570 hc         1 KX1       0.051450
     38 H13A         4.0670    -0.6920    -0.3790 hc         1 KX1       0.051450
     39 H14          5.1710     1.1820    -3.7130 hc         1 KX1       0.071950
     40 H14A         4.8890     1.3610    -1.7800 hc         1 KX1       0.071950
     41 H15          4.8110    -1.3370    -2.8910 hc         1 KX1       0.097950
     42 H15A         3.2800    -2.0750    -3.0830 hc         1 KX1       0.097950
     43 H16          5.7380    -0.3380    -3.7440 hc         1 KX1       0.071950
     44 H16A         5.1500    -0.8060    -2.1180 hc         1 KX1       0.071950
     45 H20          3.5350     2.7440     7.8580 h1         1 KX1       0.031450
     46 H20A         2.4370     1.8270     8.7850 h1         1 KX1       0.031450
     47 H21          1.0770     3.9340     9.1010 hc         1 KX1       0.117450
     48 H21A         2.7650     4.0680     9.4110 hc         1 KX1       0.117450
     49 H22          0.0810     3.1870     8.1790 hc         1 KX1       0.083200
     50 H22A        -0.1040     4.2590     9.6170 hc         1 KX1       0.083200
     51 H23          0.1570     2.4240     7.6180 hc         1 KX1       0.117450
     52 H23A        -1.3260     3.3450     7.8910 hc         1 KX1       0.117450
     53 H24          0.3100     1.1460     7.4410 h1         1 KX1       0.031450
     54 H24A        -0.0840     1.7620     6.1000 h1         1 KX1       0.031450
@<TRIPOS>BOND
     1     1     2 ar
     2     1     6 ar
     3     2     3 ar
     4     2    10 1
     5     3     4 ar
     6     4     5 ar
     7     4     7 1
     8     5     6 ar
     9     6    17 1
    10     7     8 1
    11     8     9 1
    12     9    18 1
    13    10    11 1
    14    10    13 1
    15    11    12 1
    16    12    14 1
    17    13    15 1
    18    14    16 1
    19    15    16 1
    20    17    19 3
    21    18    20 1
    22    18    24 1
    23    20    21 1
    24    21    22 1
    25    22    23 1
    26    23    24 1
    27     3    25 1
    28     7    26 1
    29     7    27 1
    30     8    28 1
    31     8    29 1
    32     9    30 1
    33     9    31 1
    34    10    32 1
    35    11    33 1
    36    11    34 1
    37    12    35 1
    38    12    36 1
    39    13    37 1
    40    13    38 1
    41    14    39 1
    42    14    40 1
    43    15    41 1
    44    15    42 1
    45    16    43 1
    46    16    44 1
    47    20    45 1
    48    20    46 1
    49    21    47 1
    50    21    48 1
    51    22    49 1
    52    22    50 1
    53    23    51 1
    54    23    52 1
    55    24    53 1
    56    24    54 1
@<TRIPOS>SUBSTRUCTURE
     1 KX1         1 TEMP              0 ****  ****    0 ROOT
