@<TRIPOS>MOLECULE
KXA
   49    52     1     0     0
SMALL
bcc


@<TRIPOS>ATOM
      1 C01          0.0000     0.0000     0.0000 ca         1 KXA      -0.135000
      2 C02          1.3820     0.0000     0.0000 ca         1 KXA      -0.023000
      3 C03         -3.5690     3.5300     6.1710 ca         1 KXA      -0.105000
      4 C04         -0.6940     0.0060     1.1950 ca         1 KXA      -0.041000
      5 C05          2.0780     0.0000     1.1950 ca         1 KXA      -0.203000
      6 C06         -3.6060     4.9070     6.2520 ca         1 KXA      -0.093000
      7 C07         -1.5230     4.9040     7.4440 ca         1 KXA      -0.081000
      8 C08         -2.5050     2.8290     6.7340 cp         1 KXA      -0.104000
      9 C09         -2.4610     1.3500     6.6500 cp         1 KXA       0.060000
     10 C10         -1.8410     0.7110     5.5780 ca         1 KXA      -0.198600
     11 C11         -3.0330     0.5530     7.6470 ca         1 KXA      -0.308600
     12 C12         -0.0040     0.0050     2.3980 ca         1 KXA      -0.139400
     13 C13          1.3890    -0.0010     2.3970 ca         1 KXA       0.176100
     14 C14         -2.5860     5.5940     6.8870 ca         1 KXA      -0.026600
     15 C15         -1.4820     3.5250     7.3780 ca         1 KXA      -0.028600
     16 C16         -1.8150    -0.6800     5.5250 ca         1 KXA       0.377800
     17 C17         -2.9660    -0.8230     7.5270 ca         1 KXA       0.397600
     18 C18         -1.1020    -1.0780     4.2910 c          1 KXA       0.508000
     19 C19         -1.1280     1.2060     4.3480 c3         1 KXA       0.100300
     20 C20         -3.5810    -1.6890     8.5960 c3         1 KXA      -0.050400
     21 C22         -3.7100     1.1850     8.8360 c3         1 KXA       0.031100
     22 N23         -2.3790    -1.3920     6.4970 nb         1 KXA      -0.467000
     23 N24         -0.7050     0.0100     3.6100 n          1 KXA       0.014000
     24 N25         -5.1330     1.3940     8.5350 nz         1 KXA       0.069400
     25 O27          2.0720    -0.0010     3.5720 os         1 KXA      -0.313900
     26 Cl1         -2.6400     7.3260     6.9840 cl         1 KXA       0.045600
     27 Cl2         -0.1520     2.6600     8.0830 cl         1 KXA       0.033600
     28 H01         -0.5400     0.0000    -0.9390 ha         1 KXA       0.115000
     29 H02          1.9230    -0.0020    -0.9390 ha         1 KXA       0.110000
     30 H03         -4.3690     2.9940     5.6730 ha         1 KXA       0.105000
     31 H04         -1.7780     0.0080     1.1930 ha         1 KXA       0.107000
     32 H05          3.1610    -0.0020     1.1910 ha         1 KXA       0.130000
     33 H06         -4.4350     5.4520     5.8160 ha         1 KXA       0.130000
     34 H07         -0.7280     5.4460     7.9420 ha         1 KXA       0.142000
     35 H19         -1.8030     1.7970     3.7400 h1         1 KXA       0.043200
     36 H19A        -0.2630     1.7930     4.6310 h1         1 KXA       0.043200
     37 H20         -4.6490    -1.5140     8.6330 hc         1 KXA       0.021700
     38 H20A        -3.1410    -1.4450     9.5560 hc         1 KXA       0.021700
     39 H20B        -3.3930    -2.7310     8.3680 hc         1 KXA       0.021700
     40 H21          3.9150    -0.0010     4.4960 h1         1 KXA       0.004033
     41 H21A         3.8320    -0.8850     2.9660 h1         1 KXA       0.004033
     42 H21B         3.8320     0.8840     2.9660 h1         1 KXA       0.004033
     43 H22         -3.2430     2.1380     9.0530 hx         1 KXA       0.090700
     44 H22A        -3.6150     0.5330     9.6950 hx         1 KXA       0.090700
     45 HN25        -5.3050     1.1840     7.5720 hn         1 KXA       0.224800
     46 HN2A        -5.3760     2.3480     8.7170 hn         1 KXA       0.224800
     47 H253        -5.6880     0.7930     9.1120 hn         1 KXA       0.224800
     48 O26         -0.9030    -2.2250     3.9430 o          1 KXA      -0.599500
     49 C21          3.4990    -0.0010     3.4950 c3         1 KXA       0.244700
@<TRIPOS>BOND
     1     1     2 ar  
     2     1     4 ar  
     3     1    28 1   
     4     2     5 ar  
     5     2    29 1   
     6     3     6 ar  
     7     3     8 ar  
     8     3    30 1   
     9     4    12 ar  
    10     4    31 1   
    11     5    13 ar  
    12     5    32 1   
    13     6    14 ar  
    14     6    33 1   
    15     7    14 ar  
    16     7    15 ar  
    17     7    34 1   
    18     8     9 1   
    19     8    15 ar  
    20     9    10 ar  
    21     9    11 ar  
    22    10    16 ar  
    23    10    19 1   
    24    11    17 ar  
    25    11    21 1   
    26    12    13 ar  
    27    12    23 1   
    28    13    25 1   
    29    14    26 1   
    30    15    27 1   
    31    16    18 1   
    32    16    22 ar  
    33    17    20 1   
    34    17    22 ar  
    35    18    23 1   
    36    18    48 2   
    37    19    23 1   
    38    19    35 1   
    39    19    36 1   
    40    20    37 1   
    41    20    38 1   
    42    20    39 1   
    43    21    24 1   
    44    21    43 1   
    45    21    44 1   
    46    24    45 1   
    47    24    46 1   
    48    24    47 1   
    49    25    49 1   
    50    40    49 1   
    51    41    49 1   
    52    42    49 1   
@<TRIPOS>SUBSTRUCTURE
     1 KXA         1 TEMP              0 ****  ****    0 ROOT
