@<TRIPOS>MOLECULE
molecule
   45    47     1     0     0
SMALL
bcc


@<TRIPOS>ATOM
      1 C01          0.0000     0.0000     0.0000 ca         1 KXB      -0.129000
      2 C02          1.3790     0.0000     0.0000 ca         1 KXB      -0.120000
      3 C03          1.3900    -0.0010     2.4010 ca         1 KXB      -0.106000
      4 C04         -0.6960    -0.0010     1.2080 cp         1 KXB      -0.100000
      5 C05         -2.1790     0.0040     1.2140 cp         1 KXB       0.050000
      6 C06         -2.8990    -1.1860     1.2140 ca         1 KXB      -0.207600
      7 C07         -2.8950     1.2060     1.2260 ca         1 KXB      -0.305600
      8 C08          2.0740     0.0000     1.1980 ca         1 KXB       0.049400
      9 C09          0.0100    -0.0070     2.4120 ca         1 KXB       0.042400
     10 C10         -4.2910    -1.1500     1.2200 ca         1 KXB       0.442800
     11 C11         -4.2770     1.1640     1.2310 ca         1 KXB       0.467600
     12 C12         -4.7860    -2.5460     1.2190 c          1 KXB       0.603000
     13 C13         -2.5020    -2.6390     1.2080 c3         1 KXB       0.144300
     14 C14         -5.0560     2.4540     1.2430 c3         1 KXB      -0.155400
     15 C15         -5.2050    -5.3400     4.6530 c3         1 KXB       0.127700
     16 C16         -2.1710     2.5290     1.2320 c3         1 KXB       0.166100
     17 C18         -3.8900    -5.3800     2.6500 c3         1 KXB       0.112400
     18 N19         -4.9250     0.0190     1.2270 nb         1 KXB      -0.616000
     19 N20         -3.7530    -3.4060     1.2110 n          1 KXB      -0.482800
     20 N21         -1.9410     2.9680    -0.1500 nz         1 KXB      -0.810600
     21 O22         -5.9570    -2.8670     1.2230 o          1 KXB      -0.539500
     22 O23         -5.0770    -4.9160     3.2940 os         1 KXB      -0.416600
     23 Cl1          3.8110     0.0010     1.1900 cl         1 KXB      -0.047400
     24 Cl2         -0.8480    -0.0080     3.9210 cl         1 KXB      -0.057400
     25 H01         -0.5420    -0.0000    -0.9380 ha         1 KXB       0.138000
     26 H02          1.9190     0.0010    -0.9390 ha         1 KXB       0.165000
     27 H03          1.9390    -0.0040     3.3350 ha         1 KXB       0.180000
     28 H13         -1.9310    -2.8640     0.3160 h1         1 KXB       0.073700
     29 H13A        -1.9240    -2.8690     2.0950 h1         1 KXB       0.073700
     30 H14         -6.1160     2.2350     1.2970 hc         1 KXB       0.063367
     31 H14A        -4.7650     3.0440     2.1040 hc         1 KXB       0.063367
     32 H14B        -4.8480     3.0100     0.3370 hc         1 KXB       0.063367
     33 H15         -4.3730    -4.9570     5.2310 h1         1 KXB       0.035367
     34 H15A        -5.2050    -6.4230     4.6950 h1         1 KXB       0.035367
     35 H15B        -6.1340    -4.9640     5.0630 h1         1 KXB       0.035367
     36 H16         -2.7720     3.2660     1.7500 hx         1 KXB       0.116700
     37 H16A        -1.2200     2.4170     1.7390 hx         1 KXB       0.116700
     38 H17         -3.0060    -5.2900     0.6930 h1         1 KXB       0.077700
     39 H17A        -4.7700    -5.1620     0.7010 h1         1 KXB       0.077700
     40 H18         -3.8790    -6.4630     2.6480 h1         1 KXB       0.033200
     41 H18A        -3.0220    -5.0110     3.1830 h1         1 KXB       0.033200
     42 HN21        -2.4900     3.7840    -0.3360 hn         1 KXB       0.455133
     43 HN2A        -2.2040     2.2370    -0.7810 hn         1 KXB       0.455133
     44 C17         -3.8590    -4.8670     1.2080 c3         1 KXB       0.139000
     45 H213        -0.9710     3.1830    -0.2740 hn         1 KXB       0.455133
@<TRIPOS>BOND
     1     2     1 ar
     2     1     4 ar
     3     1    25 1
     4     8     2 ar
     5     2    26 1
     6     8     3 ar
     7     3     9 ar
     8     3    27 1
     9     9     4 ar
    10     4     5 1
    11     5     6 ar
    12     5     7 ar
    13    13     6 1
    14     6    10 ar
    15    16     7 1
    16     7    11 ar
    17    23     8 1
    18     9    24 1
    19    10    12 1
    20    10    18 ar
    21    11    18 ar
    22    11    14 1
    23    19    12 1
    24    12    21 2
    25    13    19 1
    26    13    28 1
    27    13    29 1
    28    14    30 1
    29    14    31 1
    30    14    32 1
    31    15    22 1
    32    15    33 1
    33    15    34 1
    34    15    35 1
    35    20    16 1
    36    16    36 1
    37    16    37 1
    38    17    44 1
    39    19    44 1
    40    44    38 1
    41    44    39 1
    42    22    17 1
    43    17    40 1
    44    17    41 1
    45    20    42 1
    46    20    43 1
    47    45    20 1
@<TRIPOS>SUBSTRUCTURE
     1 KXB         1 TEMP              0 ****  ****    0 ROOT
