@<TRIPOS>MOLECULE
KXN
   35    37     1     0     0
SMALL
bcc


@<TRIPOS>ATOM
      1 O94        -0.0330   -0.0610    0.1370 oh        1 KXN     -0.517100
      2 C94         1.3430   -0.0640    0.0320 ca        1 KXN      0.045100
      3 C93         2.0600    0.2020    1.2190 ca        1 KXN      0.103100
      4 O93         1.4430    0.4520    2.4230 oh        1 KXN     -0.494100
      5 C92         3.4590    0.2150    1.1990 ca        1 KXN     -0.106000
      6 C95         2.0260   -0.3080   -1.1620 ca        1 KXN     -0.178000
      7 C96         3.4190   -0.2900   -1.1750 ca        1 KXN     -0.103000
      8 C91         4.1350   -0.0320   -0.0020 ca        1 KXN     -0.088300
      9 C2          5.6350   -0.0260    0.0230 c3        1 KXN      0.200400
     10 O1          6.0720   -0.6980   -1.1760 os        1 KXN     -0.320900
     11 C3          6.2160    1.3990    0.0900 c3        1 KXN      0.117100
     12 O3          5.7600    1.9680    1.3100 oh        1 KXN     -0.592800
     13 C4          7.7420    1.3510    0.0800 c3        1 KXN     -0.053100
     14 C10         8.2510    0.3760   -0.9090 ca        1 KXN     -0.203300
     15 C9          7.4160   -0.6050   -1.4660 ca        1 KXN      0.191100
     16 C8          7.8830   -1.5390   -2.4040 ca        1 KXN     -0.215000
     17 C5          9.5990    0.3970   -1.3150 ca        1 KXN      0.193100
     18 O51        10.3930    1.3680   -0.7510 oh        1 KXN     -0.494100
     19 C6         10.1010   -0.5180   -2.2480 ca        1 KXN     -0.329000
     20 C7          9.2290   -1.4760   -2.7840 ca        1 KXN      0.188100
     21 O71         9.6440   -2.4070   -3.7060 oh        1 KXN     -0.490100
     22 HO94       -0.3950   -0.2710   -0.7360 ho        1 KXN      0.429000
     23 HO93        0.4850    0.4050    2.2810 ho        1 KXN      0.435000
     24 H92         4.0160    0.4450    2.1210 ha        1 KXN      0.169000
     25 H95         1.4660   -0.5130   -2.0850 ha        1 KXN      0.135000
     26 H96         3.9580   -0.4880   -2.1140 ha        1 KXN      0.152000
     27 H2          6.0080   -0.6180    0.9070 h1        1 KXN      0.075700
     28 H3          5.8350    2.0000   -0.7810 h1        1 KXN      0.056700
     29 HO3         6.1140    2.8650    1.3420 ho        1 KXN      0.408000
     30 H4          8.1120    1.0750    1.1060 hc        1 KXN      0.066700
     31 H4A         8.1490    2.3730   -0.1500 hc        1 KXN      0.066700
     32 H8          7.2110   -2.2960   -2.8280 ha        1 KXN      0.170000
     33 HO51       11.2840    1.2780   -1.1210 ho        1 KXN      0.423000
     34 H6         11.1540   -0.4850   -2.5540 ha        1 KXN      0.138000
     35 HO71       10.5870   -2.2640   -3.8740 ho        1 KXN      0.421000
@<TRIPOS>BOND
     1    1    2 1   
     2    1   22 1   
     3    2    3 ar  
     4    2    6 ar  
     5    3    4 1   
     6    3    5 ar  
     7    4   23 1   
     8    5    8 ar  
     9    5   24 1   
    10    6    7 ar  
    11    6   25 1   
    12    7    8 ar  
    13    7   26 1   
    14    8    9 1   
    15    9   10 1   
    16    9   11 1   
    17    9   27 1   
    18   10   15 1   
    19   11   12 1   
    20   11   13 1   
    21   11   28 1   
    22   12   29 1   
    23   13   14 1   
    24   13   30 1   
    25   13   31 1   
    26   14   15 ar  
    27   14   17 ar  
    28   15   16 ar  
    29   16   20 ar  
    30   16   32 1   
    31   17   18 1   
    32   17   19 ar  
    33   18   33 1   
    34   19   20 ar  
    35   19   34 1   
    36   20   21 1   
    37   21   35 1   
@<TRIPOS>SUBSTRUCTURE
     1 KXN         1 TEMP              0 ****  ****    0 ROOT
