@<TRIPOS>MOLECULE
molecule
   35    37     1     0     0
SMALL
bcc


@<TRIPOS>ATOM
      1 O94          0.0000     0.0000     0.0000 oh         1 KXN      -0.512100
      2 C94          1.3600     0.0000     0.0000 ca         1 KXN       0.095100
      3 C93          2.0580     0.0000     1.2040 ca         1 KXN       0.086100
      4 O93          1.3820     0.0000     2.3840 oh         1 KXN      -0.511100
      5 C92          3.4440     0.0000     1.1980 ca         1 KXN      -0.116000
      6 C95          2.0540    -0.0070    -1.2000 ca         1 KXN      -0.161000
      7 C96          3.4360    -0.0060    -1.1980 ca         1 KXN      -0.100000
      8 C91          4.1290     0.0000    -0.0020 ca         1 KXN      -0.080300
      9 C2           5.6370     0.0000    -0.0060 c3         1 KXN       0.205400
     10 O1           6.1140    -0.7560    -1.1210 os         1 KXN      -0.318900
     11 C3           6.1520     1.4380    -0.1420 c3         1 KXN       0.113100
     12 O3           5.6070     2.2460     0.9030 oh         1 KXN      -0.595800
     13 C4           7.6800     1.4130    -0.0300 c3         1 KXN      -0.050100
     14 C10          8.2370     0.3390    -0.9300 ca         1 KXN      -0.193300
     15 C9           7.4370    -0.6780    -1.4200 ca         1 KXN       0.180100
     16 C8           7.9880    -1.6540    -2.2440 ca         1 KXN      -0.203000
     17 C5           9.5850     0.3830    -1.2670 ca         1 KXN       0.171100
     18 O51         10.3700     1.3840    -0.7870 oh         1 KXN      -0.506100
     19 C6          10.1320    -0.5880    -2.0880 ca         1 KXN      -0.261000
     20 C7           9.3310    -1.6090    -2.5770 ca         1 KXN       0.165100
     21 O71          9.8650    -2.5650    -3.3830 oh         1 KXN      -0.518100
     22 HO94        -0.3140     0.8470    -0.2700 ho         1 KXN       0.423000
     23 HO93         1.3470    -0.8770     2.7270 ho         1 KXN       0.422000
     24 H92          3.9890     0.0030     2.1330 ha         1 KXN       0.150000
     25 H95          1.5130    -0.0120    -2.1380 ha         1 KXN       0.142000
     26 H96          3.9770    -0.0090    -2.1370 ha         1 KXN       0.145000
     27 H2           6.0090    -0.4340     0.9140 h1         1 KXN       0.070700
     28 H3           5.8650     1.8380    -1.1070 h1         1 KXN       0.051700
     29 HO3          5.6720     3.1560     0.6630 ho         1 KXN       0.410000
     30 H4           7.9500     1.1830     0.9940 hc         1 KXN       0.070200
     31 H4A          8.0690     2.3720    -0.3500 hc         1 KXN       0.070200
     32 H8           7.3630    -2.4520    -2.6260 ha         1 KXN       0.158000
     33 HO51        11.2120     1.0360    -0.5460 ho         1 KXN       0.427000
     34 H6          11.1830    -0.5510    -2.3480 ha         1 KXN       0.145000
     35 HO71         9.8680    -2.2590    -4.2740 ho         1 KXN       0.425000
@<TRIPOS>BOND
     1     2     1 1
     2     1    22 1
     3     6     2 ar
     4     2     3 ar
     5     5     3 ar
     6     3     4 1
     7     4    23 1
     8     8     5 ar
     9     5    24 1
    10     7     6 ar
    11     6    25 1
    12     7     8 ar
    13     7    26 1
    14     9     8 1
    15    10     9 1
    16     9    11 1
    17     9    27 1
    18    15    10 1
    19    13    11 1
    20    11    12 1
    21    11    28 1
    22    12    29 1
    23    14    13 1
    24    13    30 1
    25    13    31 1
    26    17    14 ar
    27    15    14 ar
    28    16    15 ar
    29    20    16 ar
    30    16    32 1
    31    19    17 ar
    32    17    18 1
    33    18    33 1
    34    20    19 ar
    35    19    34 1
    36    21    20 1
    37    21    35 1
@<TRIPOS>SUBSTRUCTURE
     1 KXN         1 TEMP              0 ****  ****    0 ROOT
