@<TRIPOS>MOLECULE
KXO
   47    47     1     0     0
SMALL
bcc


@<TRIPOS>ATOM
      1 C4         -0.6150    1.1570   -0.4170 c2        1 KXO     -0.105000
      2 C5          0.6000    0.7000   -0.6840 c1        1 KXO     -0.170000
      3 C6          3.2090   -0.6920    3.3540 c1        1 KXO      0.124000
      4 C7         -0.1720    0.0030    1.7390 c1        1 KXO     -0.174000
      5 C8         -4.9670    0.8480    3.0680 c3        1 KXO     -0.241000
      6 C10        -3.5550   -0.3430    4.7820 c3        1 KXO     -0.089000
      7 C13         2.5300   -0.9070   -0.5070 c2        1 KXO     -0.171000
      8 C15        -1.2450    0.3320    0.6820 c3        1 KXO     -0.158000
      9 C17        -3.6840    0.0430    3.2660 c3        1 KXO     -0.024000
     10 C1          6.4290    0.4280    4.0050 c1        1 KXO     -0.057000
     11 C2          2.9450   -0.8260   -1.7780 c2        1 KXO     -0.112000
     12 C3          5.4020   -0.1780    4.1050 c1        1 KXO     -0.222000
     13 C9         -3.7820   -1.3130    2.5290 c3        1 KXO     -0.191000
     14 C11        -4.0840   -2.3560    3.6150 c3        1 KXO     -0.069000
     15 C14         4.1970   -0.9120    4.2470 c2        1 KXO      0.003000
     16 C16         1.4380   -0.1060   -0.0080 c2        1 KXO      0.050000
     17 C18        -2.3690    1.0730    1.3520 c2        1 KXO      0.295000
     18 C19        -3.5480   -2.0230    7.3790 c3        1 KXO      0.414000
     19 N20         1.0860   -0.1260    1.4100 n3        1 KXO     -0.131000
     20 N21        -2.4750    0.8440    2.8390 n4        1 KXO     -0.116000
     21 N22        -3.9790   -1.7280    4.9320 n3        1 KXO     -0.250000
     22 O23        -3.1670    1.8410    0.8350 o         1 KXO     -0.179000
     23 F24         4.1040   -1.7960    5.2750 f         1 KXO     -0.058000
     24 F25        -3.1940   -0.7200    7.6220 f         1 KXO     -0.156333
     25 F26        -4.8570   -2.1220    7.7550 f         1 KXO     -0.156333
     26 F27        -2.8440   -2.7590    8.2960 f         1 KXO     -0.156333
     27 H4         -1.6570   -0.6500    0.2990 hc        1 KXO      0.182000
     28 H5         -1.1080    2.0520   -0.8080 ha        1 KXO      0.190000
     29 H6          3.0140   -1.5930    0.2090 ha        1 KXO      0.146000
     30 H7          1.8140   -0.3260    2.1010 hn        1 KXO      0.316000
     31 H8         -4.9540    1.7890    3.6690 hc        1 KXO      0.120667
     32 H8A        -5.1250    1.1070    1.9920 hc        1 KXO      0.120667
     33 H10        -5.8270    0.2210    3.4160 hc        1 KXO      0.120667
     34 H10A       -4.2540    0.2910    5.3990 h1        1 KXO      0.115500
     35 H17        -2.5110   -0.1740    5.1730 h1        1 KXO      0.115500
     36 H1          2.4940   -0.1370   -2.5080 ha        1 KXO      0.140000
     37 H2          7.3420    0.9680    3.9150 ha        1 KXO      0.248000
     38 H3          3.7680   -1.4500   -2.1570 ha        1 KXO      0.140000
     39 H9         -2.8310   -1.5780    2.0010 hc        1 KXO      0.115500
     40 H9A        -4.6040   -1.2880    1.7710 hc        1 KXO      0.115500
     41 H11        -5.1430   -2.7280    3.5160 h1        1 KXO      0.115000
     42 H11A       -3.3950   -3.2380    3.5010 h1        1 KXO      0.115000
     43 H12        -3.5800   -3.5710    5.8470 h1        1 KXO      0.121500
     44 H12A       -2.1280   -2.4470    5.7850 h1        1 KXO      0.121500
     45 HN21       -1.5990    0.3420    3.1290 hn        1 KXO      0.275000
     46 C12        -3.2470   -2.4970    5.9080 c3        1 KXO     -0.107000
     47 H212       -2.5230    1.7530    3.3110 hn        1 KXO      0.275000
@<TRIPOS>BOND
     1    1    2 1
     2    1    8 1
     3    1   28 1
     4    2   16 1
     5    3   15 1
     6    4    8 1
     7    4   19 1
     8    5    9 1
     9    5   31 1
    10    5   32 1
    11    5   33 1
    12    6    9 1
    13    6   21 1
    14    6   34 1
    15    6   35 1
    16    7   11 1
    17    7   16 1
    18    7   29 1
    19    8   17 1
    20    8   27 1
    21    9   13 1
    22    9   20 1
    23   10   12 1
    24   10   37 1
    25   11   36 1
    26   11   38 1
    27   12   15 1
    28   13   14 1
    29   13   39 1
    30   13   40 1
    31   14   21 1
    32   14   41 1
    33   14   42 1
    34   15   23 1
    35   16   19 1
    36   17   20 1
    37   17   22 1
    38   18   24 1
    39   18   25 1
    40   18   26 1
    41   18   46 1
    42   19   30 1
    43   20   45 1
    44   20   47 1
    45   21   46 1
    46   43   46 1
    47   44   46 1
@<TRIPOS>SUBSTRUCTURE
     1 KXO         1 TEMP              0 ****  ****    0 ROOT
