@<TRIPOS>MOLECULE
KXU
   46    48     1     0     0
SMALL
bcc


@<TRIPOS>ATOM
      1 O1         -0.0480    0.4520    0.0900 o         1 KXU     -0.391100
      2 C9          1.1320    0.1810   -0.0680 c         1 KXU      0.493600
      3 N3          1.9980    0.0670    1.1670 n4        1 KXU     -0.672800
      4 C10         1.2490    0.3230    2.4420 c3        1 KXU      0.168100
      5 C11         2.1480    0.1700    3.6210 ca        1 KXU     -0.137300
      6 C15         2.7280    1.2930    4.2180 ca        1 KXU     -0.230300
      7 C14         3.5430    1.1170    5.3620 ca        1 KXU      0.445600
      8 C16         4.1480    2.3190    6.0110 c3        1 KXU     -0.163400
      9 N4          3.7850   -0.1110    5.8900 nb        1 KXU     -0.624000
     10 C13         3.2180   -1.1760    5.3020 ca        1 KXU      0.427200
     11 C12         2.3900   -1.0960    4.1640 ca        1 KXU     -0.241300
     12 C8          1.8270   -0.0460   -1.3280 cc        1 KXU      0.191800
     13 C7          1.2170    0.0830   -2.6440 cc        1 KXU     -0.274600
     14 N2          3.1340   -0.4080   -1.4720 nd        1 KXU     -0.310300
     15 O           3.4020   -0.5150   -2.7320 os        1 KXU     -0.046100
     16 C6          2.2480   -0.2170   -3.5220 cd        1 KXU      0.316000
     17 C5          2.4140   -0.3010   -4.9670 c3        1 KXU     -0.100600
     18 S           2.1320    1.3340   -5.6030 ss        1 KXU     -0.195400
     19 C4          2.2960    1.1520   -7.3190 ca        1 KXU      0.730300
     20 N           2.1140    2.3080   -8.0260 nb        1 KXU     -0.713000
     21 C3          2.2360    2.2100   -9.3740 ca        1 KXU      0.472100
     22 C17         2.0530    3.4320  -10.2130 c3        1 KXU     -0.159900
     23 C2          2.5350    0.9770   -9.9980 ca        1 KXU     -0.364600
     24 N1          2.5840   -0.0790   -7.8290 nb        1 KXU     -0.713000
     25 C1          2.7040   -0.1610   -9.1800 ca        1 KXU      0.472100
     26 C           3.0210   -1.4780   -9.8070 c3        1 KXU     -0.159900
     27 H3          2.7750    0.7360    1.0890 hn        1 KXU      0.470300
     28 H101        0.3910   -0.4100    2.4900 hx        1 KXU      0.119700
     29 H102        0.8190    1.3650    2.3860 hx        1 KXU      0.119700
     30 H15         2.5440    2.3040    3.8280 ha        1 KXU      0.152000
     31 H12         1.9380   -2.0040    3.7440 ha        1 KXU      0.150000
     32 H161        5.2510    2.1840    6.1460 hc        1 KXU      0.071700
     33 H162        3.9690    3.2300    5.3910 hc        1 KXU      0.071700
     34 H163        3.6920    2.4750    7.0220 hc        1 KXU      0.071700
     35 H13         3.4360   -2.1540    5.7730 h4        1 KXU      0.050100
     36 H7          0.1860    0.3610   -2.8580 ha        1 KXU      0.220000
     37 H51C        1.6790   -1.0340   -5.3960 h1        1 KXU      0.127200
     38 H52C        3.4410   -0.6690   -5.2350 h1        1 KXU      0.127200
     39 H171        2.8250    4.1990   -9.9520 hc        1 KXU      0.065867
     40 H172        2.1510    3.1750  -11.2950 hc        1 KXU      0.065867
     41 H173        1.0420    3.8790  -10.0370 hc        1 KXU      0.065867
     42 H2          2.6330    0.9070  -11.0880 ha        1 KXU      0.164000
     43 HC1         3.0620   -1.3760  -10.9190 hc        1 KXU      0.065867
     44 HC2         4.0100   -1.8540   -9.4440 hc        1 KXU      0.065867
     45 HC3         2.2400   -2.2350   -9.5450 hc        1 KXU      0.065867
     46 H32         2.4060   -0.8770    1.2000 hn        1 KXU      0.470300
@<TRIPOS>BOND
     1    1    2 2
     2    2    3 1
     3    2   12 1
     4    3    4 1
     5    3   27 1
     6    3   46 1
     7    4    5 1
     8    4   28 1
     9    4   29 1
    10    5    6 ar
    11    5   11 ar
    12    6    7 ar
    13    6   30 1
    14    7    8 1
    15    7    9 ar
    16    8   32 1
    17    8   33 1
    18    8   34 1
    19    9   10 ar
    20   10   11 ar
    21   10   35 1
    22   11   31 1
    23   12   13 1
    24   12   14 2
    25   13   16 2
    26   13   36 1
    27   14   15 1
    28   15   16 1
    29   16   17 1
    30   17   18 1
    31   17   37 1
    32   17   38 1
    33   18   19 1
    34   19   20 ar
    35   19   24 ar
    36   20   21 ar
    37   21   22 1
    38   21   23 ar
    39   22   39 1
    40   22   40 1
    41   22   41 1
    42   23   25 ar
    43   23   42 1
    44   24   25 ar
    45   25   26 1
    46   26   43 1
    47   26   44 1
    48   26   45 1
@<TRIPOS>SUBSTRUCTURE
     1 KXU         1 TEMP              0 ****  ****    0 ROOT
