@<TRIPOS>MOLECULE
molecule
   45    46     1     0     0
SMALL
bcc


@<TRIPOS>ATOM
      1 Cl           0.0000     0.0000     0.0000 cl         1 KXZ      -0.109400
      2 C11          1.7360     0.0000     0.0000 ca         1 KXZ       0.036400
      3 C10          2.4350     0.0000     1.2070 cp         1 KXZ      -0.035000
      4 C13          1.6980    -0.0010     2.4940 cp         1 KXZ      -0.041000
      5 C18          2.0230    -0.9250     3.4850 ca         1 KXZ      -0.107000
      6 C17          1.3350    -0.9220     4.6820 ca         1 KXZ      -0.133000
      7 C16          0.3230    -0.0030     4.8970 ca         1 KXZ      -0.127000
      8 C15         -0.0050     0.9150     3.9170 ca         1 KXZ      -0.133000
      9 C14          0.6810     0.9250     2.7190 ca         1 KXZ      -0.107000
     10 C9           3.8280     0.0000     1.1990 ca         1 KXZ      -0.112000
     11 C8           4.5080     0.0010    -0.0020 ca         1 KXZ      -0.104000
     12 C12          2.4280    -0.0050    -1.1950 ca         1 KXZ      -0.119000
     13 C7           3.8100     0.0010    -1.1960 ca         1 KXZ      -0.069300
     14 C6           4.5610     0.0020    -2.5040 c3         1 KXZ       0.203100
     15 N1           4.8050    -1.3820    -2.9300 n7         1 KXZ      -0.817200
     16 C5           5.5340    -1.4200    -4.2040 c3         1 KXZ       0.157800
     17 C4           5.7700    -2.8750    -4.6130 c3         1 KXZ      -0.101400
     18 C3           6.5300    -2.9150    -5.9400 c3         1 KXZ       0.115000
     19 N            6.7560    -4.3090    -6.3330 ns         1 KXZ      -0.621900
     20 C2           7.4120    -4.5890    -7.4760 c          1 KXZ       0.645100
     21 O2           7.8150    -3.6880    -8.1800 o          1 KXZ      -0.549100
     22 C1           7.6430    -6.0220    -7.8800 c3         1 KXZ      -0.258400
     23 C            8.3920    -6.0610    -9.1870 c          1 KXZ       0.890600
     24 O1           8.7060    -5.0310    -9.7340 o          1 KXZ      -0.828800
     25 O            8.7120    -7.2410    -9.7430 o          1 KXZ      -0.828800
     26 H1           2.8150    -1.6440     3.3180 ha         1 KXZ       0.138000
     27 H2           1.5870    -1.6390     5.4530 ha         1 KXZ       0.128000
     28 H3          -0.2170    -0.0050     5.8360 ha         1 KXZ       0.125000
     29 H4          -0.7970     1.6330     4.0920 ha         1 KXZ       0.128000
     30 H5           0.4230     1.6460     1.9520 ha         1 KXZ       0.138000
     31 H6           4.3770    -0.0010     2.1320 ha         1 KXZ       0.140000
     32 H7           5.5920     0.0030    -0.0090 ha         1 KXZ       0.143000
     33 H8           1.8860    -0.0040    -2.1330 ha         1 KXZ       0.144000
     34 H9           5.5070     0.5130    -2.3760 h1         1 KXZ       0.039700
     35 H10          3.9730     0.5130    -3.2560 h1         1 KXZ       0.039700
     36 H11          3.9310    -1.8590    -3.0310 hn         1 KXZ       0.355800
     37 H13          6.4880    -0.9180    -4.0890 h1         1 KXZ       0.034700
     38 H14          4.9520    -0.9200    -4.9680 h1         1 KXZ       0.034700
     39 H15          6.3520    -3.3760    -3.8490 hc         1 KXZ       0.047200
     40 H16          4.8170    -3.3770    -4.7280 hc         1 KXZ       0.047200
     41 H17          5.9490    -2.4140    -6.7050 h1         1 KXZ       0.043200
     42 H18          7.4840    -2.4140    -5.8250 h1         1 KXZ       0.043200
     43 H19          6.4370    -5.0520    -5.7430 hn         1 KXZ       0.296500
     44 H20          6.6890    -6.5230    -7.9960 hc         1 KXZ       0.045700
     45 H21          8.2240    -6.5230    -7.1160 hc         1 KXZ       0.045700
@<TRIPOS>BOND
     1     8     9 ar
     2     8     7 ar
     3     9     4 ar
     4     7     6 ar
     5     4     3 1
     6     4     5 ar
     7     6     5 ar
     8    10     3 ar
     9    10    11 ar
    10     3     2 ar
    11    11    13 ar
    12    22    23 1
    13    22    20 1
    14    21    20 2
    15     2     1 1
    16     2    12 ar
    17    13    12 ar
    18    13    14 1
    19    23    24 1
    20    23    25 1
    21    20    19 1
    22    15    14 1
    23    15    16 1
    24    19    18 1
    25    16    17 1
    26    17    18 1
    27     5    26 1
    28     6    27 1
    29     7    28 1
    30     8    29 1
    31     9    30 1
    32    10    31 1
    33    11    32 1
    34    12    33 1
    35    14    34 1
    36    14    35 1
    37    15    36 1
    38    16    37 1
    39    16    38 1
    40    17    39 1
    41    17    40 1
    42    18    41 1
    43    18    42 1
    44    19    43 1
    45    22    44 1
    46    22    45 1
@<TRIPOS>SUBSTRUCTURE
     1 KXZ         1 TEMP              0 ****  ****    0 ROOT
