@<TRIPOS>MOLECULE
KXZ
   45    46     1     0     0
SMALL
bcc


@<TRIPOS>ATOM
      1 Cl           0.0000     0.0000     0.0000 cl         1 KXZ      -0.027400
      2 C11          1.7360     0.0000     0.0000 ca         1 KXZ      -0.025600
      3 C10          2.4350     0.0000     1.2070 cp         1 KXZ      -0.034000
      4 C13          1.6980    -0.0010     2.4940 cp         1 KXZ      -0.034000
      5 C18          2.0230    -0.9250     3.4850 ca         1 KXZ      -0.089500
      6 C17          1.3350    -0.9220     4.6820 ca         1 KXZ      -0.102000
      7 C16          0.3230    -0.0030     4.8970 ca         1 KXZ      -0.103000
      8 C15         -0.0050     0.9150     3.9170 ca         1 KXZ      -0.102000
      9 C14          0.6810     0.9250     2.7190 ca         1 KXZ      -0.089500
     10 C9           3.8280     0.0000     1.1990 ca         1 KXZ      -0.087000
     11 C8           4.5080     0.0010    -0.0020 ca         1 KXZ      -0.076000
     12 C12          2.4280    -0.0050    -1.1950 ca         1 KXZ      -0.096000
     13 C7           3.8100     0.0010    -1.1960 ca         1 KXZ      -0.078300
     14 C6           4.5610     0.0020    -2.5040 c3         1 KXZ       0.201100
     15 N1           4.8050    -1.3820    -2.9300 n7         1 KXZ      -0.586200
     16 C5           5.5340    -1.4200    -4.2040 c3         1 KXZ       0.145800
     17 C4           5.7700    -2.8750    -4.6130 c3         1 KXZ      -0.044400
     18 C3           6.5300    -2.9150    -5.9400 c3         1 KXZ       0.061000
     19 N            6.7560    -4.3090    -6.3330 ns         1 KXZ      -0.269900
     20 C2           7.4120    -4.5890    -7.4760 c          1 KXZ       0.566100
     21 O2           7.8150    -3.6880    -8.1800 o          1 KXZ      -0.575100
     22 C1           7.6430    -6.0220    -7.8800 c3         1 KXZ      -0.200400
     23 C            8.3920    -6.0610    -9.1870 c          1 KXZ       0.973600
     24 O1           8.7060    -5.0310    -9.7340 o          1 KXZ      -0.878800
     25 O            8.7120    -7.2410    -9.7430 o          1 KXZ      -0.878800
     26 H1           2.8150    -1.6440     3.3180 ha         1 KXZ       0.112500
     27 H2           1.5870    -1.6390     5.4530 ha         1 KXZ       0.101000
     28 H3          -0.2170    -0.0050     5.8360 ha         1 KXZ       0.099000
     29 H4          -0.7970     1.6330     4.0920 ha         1 KXZ       0.101000
     30 H5           0.4230     1.6460     1.9520 ha         1 KXZ       0.112500
     31 H6           4.3770    -0.0010     2.1320 ha         1 KXZ       0.111000
     32 H7           5.5920     0.0030    -0.0090 ha         1 KXZ       0.114000
     33 H8           1.8860    -0.0040    -2.1330 ha         1 KXZ       0.117000
     34 H9           5.5070     0.5130    -2.3760 h1         1 KXZ       0.010700
     35 H10          3.9730     0.5130    -3.2560 h1         1 KXZ       0.010700
     36 H11          3.9310    -1.8590    -3.0310 hn         1 KXZ       0.254800
     37 H13          6.4880    -0.9180    -4.0890 h1         1 KXZ       0.009700
     38 H14          4.9520    -0.9200    -4.9680 h1         1 KXZ       0.009700
     39 H15          6.3520    -3.3760    -3.8490 hc         1 KXZ       0.017700
     40 H16          4.8170    -3.3770    -4.7280 hc         1 KXZ       0.017700
     41 H17          5.9490    -2.4140    -6.7050 h1         1 KXZ       0.017200
     42 H18          7.4840    -2.4140    -5.8250 h1         1 KXZ       0.017200
     43 H19          6.4370    -5.0520    -5.7430 hn         1 KXZ       0.164500
     44 H20          6.6890    -6.5230    -7.9960 hc         1 KXZ       0.016700
     45 H21          8.2240    -6.5230    -7.1160 hc         1 KXZ       0.016700
@<TRIPOS>BOND
     1     1     2 1   
     2     2     3 ar  
     3     2    12 ar  
     4     3     4 1   
     5     3    10 ar  
     6     4     5 ar  
     7     4     9 ar  
     8     5     6 ar  
     9     5    26 1   
    10     6     7 ar  
    11     6    27 1   
    12     7     8 ar  
    13     7    28 1   
    14     8     9 ar  
    15     8    29 1   
    16     9    30 1   
    17    10    11 ar  
    18    10    31 1   
    19    11    13 ar  
    20    11    32 1   
    21    12    13 ar  
    22    12    33 1   
    23    13    14 1   
    24    14    15 1   
    25    14    34 1   
    26    14    35 1   
    27    15    16 1   
    28    15    36 1   
    29    16    17 1   
    30    16    37 1   
    31    16    38 1   
    32    17    18 1   
    33    17    39 1   
    34    17    40 1   
    35    18    19 1   
    36    18    41 1   
    37    18    42 1   
    38    19    20 1   
    39    19    43 1   
    40    20    21 2   
    41    20    22 1   
    42    22    23 1   
    43    22    44 1   
    44    22    45 1   
    45    23    24 1   
    46    23    25 1   
@<TRIPOS>SUBSTRUCTURE
     1 KXZ         1 TEMP              0 ****  ****    0 ROOT
