@<TRIPOS>MOLECULE
KY1
   24    24     1     0     0
SMALL
bcc


@<TRIPOS>ATOM
      1 CA           0.0000     0.0000     0.0000 c3         1 KY1      -0.127400
      2 CB           1.5300     0.0000     0.0000 c3         1 KY1      -0.058400
      3 CG           3.5740     0.4160    -3.4210 ca         1 KY1       0.122600
      4 CD1          4.9060     0.4950    -3.8110 ca         1 KY1      -0.184000
      5 CE1          5.9090     0.3930    -2.8700 ca         1 KY1      -0.066000
      6 CZ           5.6010     0.2110    -1.5300 ca         1 KY1      -0.161000
      7 CE2          4.2890     0.1300    -1.1220 ca         1 KY1      -0.068000
      8 CD2          3.2570     0.2380    -2.0630 ca         1 KY1      -0.192600
      9 C           -0.5020     0.0000     1.4210 c          1 KY1       0.979600
     10 O            0.2830     0.0000     2.3390 o          1 KY1      -0.905800
     11 OXT         -1.8220    -0.0010     1.6660 o          1 KY1      -0.905800
     12 C1           2.0320     0.0000    -1.4210 c          1 KY1       0.589700
     13 O2           1.2440     0.0000    -2.3430 o          1 KY1      -0.612100
     14 HAC1        -0.3610    -0.8840    -0.5110 hc         1 KY1       0.018700
     15 HAC2        -0.3610     0.8850    -0.5110 hc         1 KY1       0.018700
     16 HBC1         1.8910     0.8850     0.5110 hc         1 KY1       0.039200
     17 HBC2         1.8910    -0.8840     0.5110 hc         1 KY1       0.039200
     18 HD1          5.1560     0.6350    -4.8560 ha         1 KY1       0.101000
     19 HE1          6.9450     0.4560    -3.1800 ha         1 KY1       0.087000
     20 HZ           6.3980     0.1300    -0.8000 ha         1 KY1       0.097000
     21 HE2          4.0540    -0.0100    -0.0740 ha         1 KY1       0.122000
     22 H1N1         1.8850     1.2490    -4.2930 hn         1 KY1       0.271300
     23 H1N2         2.5590    -0.0920    -5.1590 hn         1 KY1       0.271300
     24 N1           2.5650     0.5190    -4.3660 nv         1 KY1      -0.477200
@<TRIPOS>BOND
     1     1     2 1   
     2     1     9 1   
     3     1    14 1   
     4     1    15 1   
     5     2    12 1   
     6     2    16 1   
     7     2    17 1   
     8     3     4 ar  
     9     3     8 ar  
    10     3    24 1   
    11     4     5 ar  
    12     4    18 1   
    13     5     6 ar  
    14     5    19 1   
    15     6     7 ar  
    16     6    20 1   
    17     7     8 ar  
    18     7    21 1   
    19     8    12 1   
    20     9    10 1   
    21     9    11 1   
    22    12    13 2   
    23    22    24 1   
    24    23    24 1   
@<TRIPOS>SUBSTRUCTURE
     1 KY1         1 TEMP              0 ****  ****    0 ROOT
