@<TRIPOS>MOLECULE
molecule
   20    21     1     0     0
SMALL
bcc


@<TRIPOS>ATOM
      1 N            0.0000     0.0000     0.0000 nb         1 KYA      -0.650000
      2 C1           2.0450     0.0020    -1.2260 ca         1 KYA      -0.184300
      3 O1           1.9640     0.0040    -3.6350 oh         1 KYA      -0.526100
      4 C2           1.3330     0.0000     0.0000 ca         1 KYA       0.423600
      5 O2          -2.8220     0.0010    -2.0900 o          1 KYA      -0.813300
      6 C3           1.3220     0.0030    -2.4400 ca         1 KYA       0.100100
      7 O3          -2.7970    -0.0010     0.1290 o          1 KYA      -0.813300
      8 C4           3.4470     0.0040    -1.2140 ca         1 KYA      -0.098000
      9 C5           2.0560     0.0000     1.2090 ca         1 KYA      -0.162300
     10 C6          -0.0600     0.0020    -2.3740 ca         1 KYA      -0.255300
     11 C7          -0.6910     0.0010    -1.1260 ca         1 KYA       0.439800
     12 C8           4.1110     0.0030    -0.0250 ca         1 KYA      -0.163000
     13 C9           3.4160     0.0010     1.1830 ca         1 KYA      -0.142000
     14 C10         -2.1730     0.0000    -1.0640 c          1 KYA       0.778100
     15 HO1          1.7420    -0.7790    -4.1120 ho         1 KYA       0.414000
     16 H4           4.0000     0.0050    -2.1450 ha         1 KYA       0.128000
     17 H5           1.5310    -0.0010     2.1570 ha         1 KYA       0.145000
     18 H6          -0.5980     0.0690    -3.3120 ha         1 KYA       0.158000
     19 H8           5.1940     0.0030    -0.0170 ha         1 KYA       0.109000
     20 H9           3.9670    -0.0000     2.1150 ha         1 KYA       0.113000
@<TRIPOS>BOND
     1     1     4 ar
     2     1    11 ar
     3     2     4 ar
     4     2     6 ar
     5     2     8 ar
     6     3     6 1
     7     4     9 ar
     8     5    14 1
     9     6    10 ar
    10     7    14 1
    11     8    12 ar
    12     9    13 ar
    13    10    11 ar
    14    11    14 1
    15    12    13 ar
    16     3    15 1
    17     8    16 1
    18     9    17 1
    19    10    18 1
    20    12    19 1
    21    13    20 1
@<TRIPOS>SUBSTRUCTURE
     1 KYA         1 TEMP              0 ****  ****    0 ROOT
