@<TRIPOS>MOLECULE
KYA
   20    21     1     0     0
SMALL
bcc


@<TRIPOS>ATOM
      1 N          -0.0240    0.2170    0.0480 nb        1 KYA     -0.683000
      2 C1          2.0850   -0.1310   -1.1950 ca        1 KYA     -0.181300
      3 O1          2.0150   -0.6170   -3.5360 oh        1 KYA     -0.517100
      4 C2          1.3550    0.1500    0.0030 ca        1 KYA      0.425600
      5 O2         -2.7620    1.1820   -1.3820 o         1 KYA     -0.803300
      6 C3          1.3100   -0.3460   -2.3810 ca        1 KYA      0.127100
      7 O3         -2.8540   -1.0150   -0.9160 o         1 KYA     -0.803300
      8 C4          3.4980   -0.1870   -1.1770 ca        1 KYA     -0.084000
      9 C5          2.1140    0.3680    1.2010 ca        1 KYA     -0.179300
     10 C6         -0.0640   -0.2780   -2.3310 ca        1 KYA     -0.307300
     11 C7         -0.6990    0.0110   -1.0750 ca        1 KYA      0.430800
     12 C8          4.1880    0.0290   -0.0090 ca        1 KYA     -0.175000
     13 C9          3.4850    0.3080    1.1850 ca        1 KYA     -0.136000
     14 C10        -2.2490    0.0690   -1.1090 c         1 KYA      0.826100
     15 HO1         1.3660   -0.7380   -4.2450 ho        1 KYA      0.414000
     16 H4          4.0230   -0.4060   -2.1190 ha        1 KYA      0.131000
     17 H5          1.5710    0.5860    2.1340 ha        1 KYA      0.141000
     18 H6         -0.6960   -0.4360   -3.2130 ha        1 KYA      0.148000
     19 H8          5.2850   -0.0130    0.0110 ha        1 KYA      0.113000
     20 H9          4.0560    0.4770    2.1100 ha        1 KYA      0.113000
@<TRIPOS>BOND
     1    1    4 ar  
     2    1   11 ar  
     3    2    4 ar  
     4    2    6 ar  
     5    2    8 ar  
     6    3    6 1   
     7    3   15 1   
     8    4    9 ar  
     9    5   14 1   
    10    6   10 ar  
    11    7   14 1   
    12    8   12 ar  
    13    8   16 1   
    14    9   13 ar  
    15    9   17 1   
    16   10   11 ar  
    17   10   18 1   
    18   11   14 1   
    19   12   13 ar  
    20   12   19 1   
    21   13   20 1   
@<TRIPOS>SUBSTRUCTURE
     1 KYA         1 TEMP              0 ****  ****    0 ROOT
