@<TRIPOS>MOLECULE
molecule
   17    17     1     0     0
SMALL
bcc


@<TRIPOS>ATOM
      1 C1           0.0000     0.0000     0.0000 c3         1 KYD      -0.101400
      2 C2           1.5070     0.0000     0.0000 cc         1 KYD       0.355600
      3 N3           2.2740     0.0000     1.0560 nd         1 KYD      -0.574800
      4 N4           3.6120    -0.0000     0.6450 na         1 KYD      -0.065600
      5 C6           3.6450    -0.0010    -0.6970 cd         1 KYD      -0.097600
      6 C7           4.8820    -0.0030    -1.5580 c3         1 KYD      -0.012800
      7 C8           2.3380    -0.0060    -1.1430 cc         1 KYD      -0.273900
      8 C9           1.8930    -0.0130    -2.5470 c          1 KYD       0.908200
      9 O10          1.6880    -1.1840    -3.1840 o          1 KYD      -0.842800
     10 O11          1.7110     1.0370    -3.1330 o          1 KYD      -0.842800
     11 H11C        -0.3610     0.0060     1.0210 hc         1 KYD       0.042367
     12 H12C        -0.3610     0.8820    -0.5160 hc         1 KYD       0.042367
     13 H13C        -0.3610    -0.8870    -0.5060 hc         1 KYD       0.042367
     14 H4           4.4090    -0.0000     1.2500 hn         1 KYD       0.297700
     15 H71C         4.8840     0.8780    -2.1880 hc         1 KYD       0.040700
     16 H72C         4.8880    -0.8910    -2.1790 hc         1 KYD       0.040700
     17 H73C         5.7620     0.0020    -0.9270 hc         1 KYD       0.040700
@<TRIPOS>BOND
     1     1     2 1
     2     2     3 2
     3     2     7 1
     4     3     4 1
     5     4     5 1
     6     5     6 1
     7     5     7 2
     8     7     8 1
     9     8     9 1
    10     8    10 1
    11     1    11 1
    12     1    12 1
    13     1    13 1
    14     4    14 1
    15     6    15 1
    16     6    16 1
    17     6    17 1
@<TRIPOS>SUBSTRUCTURE
     1 KYD         1 TEMP              0 ****  ****    0 ROOT
