@<TRIPOS>MOLECULE
KZ9
   33    35     1     0     0
SMALL
bcc


@<TRIPOS>ATOM
      1 OAB          0.0000     0.0000     0.0000 oh         1 KZ9      -0.495100
      2 CAQ          1.3590     0.0000     0.0000 ca         1 KZ9       0.123100
      3 CAG          2.0540     0.0000     1.2010 ca         1 KZ9      -0.085000
      4 CAE          2.0530    -0.0070    -1.2000 ca         1 KZ9      -0.128000
      5 CAD          3.4350    -0.0070    -1.1980 ca         1 KZ9      -0.081000
      6 CAF          4.1250    -0.0020    -0.0010 ca         1 KZ9      -0.112000
      7 CAR          3.4360    -0.0010     1.1980 ca         1 KZ9      -0.122300
      8 CAS          4.1910    -0.0010     2.5010 c3         1 KZ9       0.134200
      9 CAP          4.6510    -1.4040     2.8010 ce         1 KZ9      -0.307400
     10 CAM          3.6690    -2.4040     2.9300 c          1 KZ9       0.634300
     11 OAA          2.4990    -2.1120     2.7820 o          1 KZ9      -0.563100
     12 CAI          4.0400    -3.8270     3.2490 c3         1 KZ9      -0.114400
     13 CAH          5.3460    -3.8320     4.0500 c3         1 KZ9      -0.025400
     14 CAJ          6.4170    -3.1040     3.2340 c3         1 KZ9       0.019800
     15 CAO          5.9600    -1.6950     2.9430 c2         1 KZ9      -0.088600
     16 NAK          6.9110    -0.7170     2.8240 ns         1 KZ9       0.106900
     17 CAN          6.5800     0.5540     2.5620 cs         1 KZ9       0.255400
     18 SAC          7.8180     1.7280     2.4280 s          1 KZ9      -0.690400
     19 NAL          5.3040     0.9290     2.4020 ns         1 KZ9      -0.018900
     20 HAB         -0.3140     0.8880    -0.0320 ho         1 KZ9       0.401000
     21 HAG          1.5140     0.0010     2.1400 ha         1 KZ9       0.132000
     22 HAE          1.5130    -0.0100    -2.1390 ha         1 KZ9       0.114000
     23 HAD          3.9780    -0.0090    -2.1360 ha         1 KZ9       0.107000
     24 HAF          5.2080    -0.0020    -0.0010 ha         1 KZ9       0.106000
     25 HAS          3.5320     0.3270     3.2950 h1         1 KZ9       0.049700
     26 HAL          5.1080     1.8910     2.2070 hn         1 KZ9       0.214500
     27 HAI1         3.2530    -4.2830     3.8380 hc         1 KZ9       0.044700
     28 HAI2         4.1780    -4.3800     2.3280 hc         1 KZ9       0.044700
     29 HAH1         5.6580    -4.8540     4.2290 hc         1 KZ9       0.026200
     30 HAH2         5.1970    -3.3210     4.9930 hc         1 KZ9       0.026200
     31 HAJ1         7.2770    -3.0110     3.8860 hc         1 KZ9       0.044700
     32 HAJ2         6.4580    -3.6090     2.2770 hc         1 KZ9       0.044700
     33 HAK          7.8760    -0.9580     2.9360 hn         1 KZ9       0.202500
@<TRIPOS>BOND
     1     1     2 1   
     2     1    20 1   
     3     2     3 ar  
     4     2     4 ar  
     5     3     7 ar  
     6     3    21 1   
     7     4     5 ar  
     8     4    22 1   
     9     5     6 ar  
    10     5    23 1   
    11     6     7 ar  
    12     6    24 1   
    13     7     8 1   
    14     8     9 1   
    15     8    19 1   
    16     8    25 1   
    17     9    10 1   
    18     9    15 2   
    19    10    11 2   
    20    10    12 1   
    21    12    13 1   
    22    12    27 1   
    23    12    28 1   
    24    13    14 1   
    25    13    29 1   
    26    13    30 1   
    27    14    15 1   
    28    14    31 1   
    29    14    32 1   
    30    15    16 1   
    31    16    17 1   
    32    16    33 1   
    33    17    18 2   
    34    17    19 1   
    35    19    26 1   
@<TRIPOS>SUBSTRUCTURE
     1 KZ9         1 TEMP              0 ****  ****    0 ROOT
