@<TRIPOS>MOLECULE
molecule
   48    47     1     0     0
SMALL
bcc


@<TRIPOS>ATOM
      1 O3           0.0000     0.0000     0.0000 o          1 KZH      -0.519100
      2 C13          1.2140     0.0000     0.0000 c          1 KZH       0.548300
      3 C14          1.9690     0.0000     1.3050 c3         1 KZH      -0.062200
      4 C15          0.9910     0.0000     2.4510 c2         1 KZH      -0.157200
      5 C16          1.0920    -0.8990     3.3980 c2         1 KZH      -0.257200
      6 C17          2.2810    -1.8240     3.4350 c3         1 KZH       0.086800
      7 C18          2.9430    -1.7490     4.8120 c3         1 KZH      -0.108100
      8 C12          1.9180    -0.0060    -1.2200 ce         1 KZH      -0.314200
      9 C11          1.2380    -0.0120    -2.3950 cf         1 KZH      -0.007000
     10 C10          1.9670    -0.0180    -3.6610 cf         1 KZH      -0.198000
     11 C9           1.2990    -0.0240    -4.8180 c2         1 KZH      -0.103200
     12 C8           2.0520    -0.0300    -6.1230 c3         1 KZH      -0.060200
     13 C7           1.5900    -1.2160    -6.9730 c3         1 KZH      -0.078400
     14 C6           2.3530    -1.2210    -8.2980 c3         1 KZH      -0.083400
     15 C5           1.8910    -2.4070    -9.1470 c3         1 KZH      -0.081400
     16 C4           2.6550    -2.4140   -10.4730 c3         1 KZH      -0.088400
     17 C3           2.1930    -3.5990   -11.3220 c3         1 KZH      -0.063400
     18 C2           2.9570    -3.6060   -12.6480 c3         1 KZH      -0.183400
     19 C1           2.5010    -4.7740   -13.4840 c          1 KZH       0.890600
     20 O1           3.0380    -4.9810   -14.6970 o          1 KZH      -0.857300
     21 O2           1.6530    -5.5240   -13.0640 o          1 KZH      -0.857300
     22 H141         2.5920    -0.8840     1.3610 hc         1 KZH       0.063200
     23 H142         2.5920     0.8850     1.3610 hc         1 KZH       0.063200
     24 H12          3.0010    -0.0060    -1.2200 ha         1 KZH       0.128000
     25 H15          1.9540     0.4870     2.5400 ha         1 KZH       0.069000
     26 H16          1.1120    -1.8050     2.8050 ha         1 KZH       0.064000
     27 H171         2.9940    -1.5270     2.6750 hc         1 KZH       0.041200
     28 H172         1.9540    -2.8390     3.2470 hc         1 KZH       0.041200
     29 H181         2.2210    -2.0150     5.5750 hc         1 KZH       0.040033
     30 H182         3.7780    -2.4390     4.8490 hc         1 KZH       0.040033
     31 H183         3.2990    -0.7410     4.9870 hc         1 KZH       0.040033
     32 H11          0.1550    -0.0110    -2.3950 ha         1 KZH       0.151000
     33 H10          3.0510    -0.0170    -3.6620 ha         1 KZH       0.133000
     34 H9           0.2160    -0.0240    -4.8170 ha         1 KZH       0.130000
     35 H81C         1.8580     0.8940    -6.6560 hc         1 KZH       0.052200
     36 H82C         3.1140    -0.1180    -5.9270 hc         1 KZH       0.052200
     37 H71C         0.5280    -1.1280    -7.1680 hc         1 KZH       0.044200
     38 H72C         1.7840    -2.1390    -6.4400 hc         1 KZH       0.044200
     39 H61C         2.1590    -0.2980    -8.8310 hc         1 KZH       0.037700
     40 H62C         3.4150    -1.3090    -8.1030 hc         1 KZH       0.037700
     41 H51C         0.8290    -2.3190    -9.3420 hc         1 KZH       0.039700
     42 H52C         2.0850    -3.3300    -8.6140 hc         1 KZH       0.039700
     43 H41C         2.4620    -1.4910   -11.0060 hc         1 KZH       0.029200
     44 H42C         3.7170    -2.5030   -10.2770 hc         1 KZH       0.029200
     45 H31C         1.1310    -3.5110   -11.5170 hc         1 KZH       0.045200
     46 H32C         2.3860    -4.5220   -10.7890 hc         1 KZH       0.045200
     47 H21C         2.7630    -2.6830   -13.1810 hc         1 KZH       0.026700
     48 H22C         4.0190    -3.6940   -12.4530 hc         1 KZH       0.026700
@<TRIPOS>BOND
     1     1     2 2
     2     2     3 1
     3     2     8 1
     4     3     4 1
     5     4     5 2
     6     5     6 1
     7     6     7 1
     8     8     9 2
     9     9    10 1
    10    10    11 2
    11    11    12 1
    12    12    13 1
    13    13    14 1
    14    14    15 1
    15    15    16 1
    16    16    17 1
    17    17    18 1
    18    18    19 1
    19    19    20 1
    20    19    21 1
    21     3    22 1
    22     3    23 1
    23     8    24 1
    24     4    25 1
    25     5    26 1
    26     6    27 1
    27     6    28 1
    28     7    29 1
    29     7    30 1
    30     7    31 1
    31     9    32 1
    32    10    33 1
    33    11    34 1
    34    12    35 1
    35    12    36 1
    36    13    37 1
    37    13    38 1
    38    14    39 1
    39    14    40 1
    40    15    41 1
    41    15    42 1
    42    16    43 1
    43    16    44 1
    44    17    45 1
    45    17    46 1
    46    18    47 1
    47    18    48 1
@<TRIPOS>SUBSTRUCTURE
     1 KZH         1 TEMP              0 ****  ****    0 ROOT
