@<TRIPOS>MOLECULE
molecule
   56    58     1     0     0
SMALL
bcc


@<TRIPOS>ATOM
      1 O1           0.0000     0.0000     0.0000 o          1 KZI      -0.457100
      2 O2          -0.3470     0.0150     7.2850 os         1 KZI      -0.326400
      3 O3          -3.8040    -2.1390     4.8290 os         1 KZI      -0.326400
      4 N4           1.9310     0.0760     3.6380 nb         1 KZI      -0.750000
      5 N5           3.9490     0.3080     4.8150 nu         1 KZI      -0.924900
      6 N8           3.2770     0.2380     1.2710 nb         1 KZI      -0.589000
      7 C10         -2.0820    -1.0640     6.0690 ca         1 KZI      -0.434000
      8 C11          6.0750    -0.8890     4.6680 c3         1 KZI      -0.052400
      9 C12         -1.9730    -1.1590     3.6710 ca         1 KZI      -0.261500
     10 C13          1.2620     0.0000     2.4940 ca         1 KZI       0.716900
     11 C14          1.2160     0.0000     0.0000 c          1 KZI       0.444600
     12 C15          3.9340     0.3120     2.4060 ca         1 KZI       0.204900
     13 C16         -0.2260    -0.0690     4.9130 ca         1 KZI      -0.261500
     14 C17          1.9530     0.0830     1.2740 ca         1 KZI       0.054500
     15 C18         -0.7720    -0.4630     3.6980 ca         1 KZI       0.086600
     16 C19         -0.8810    -0.3700     6.0970 ca         1 KZI       0.141600
     17 C20          5.4030     0.4780     4.8010 c3         1 KZI       0.149500
     18 C21         -1.0750    -0.3280     8.4660 c3         1 KZI       0.114700
     19 C22          3.2500     0.2290     3.6240 ca         1 KZI       0.658900
     20 C23         -2.6270    -1.4590     4.8560 ca         1 KZI       0.141600
     21 C24          5.8520     1.1420     6.1060 c3         1 KZI       0.077500
     22 C25          5.6770    -1.7720     5.8520 c3         1 KZI      -0.208400
     23 C26          6.1250    -1.1080     7.1560 c3         1 KZI      -0.028400
     24 C27         -4.4220    -2.4140     6.0880 c3         1 KZI       0.114700
     25 C28          5.4530     0.2590     7.2900 c3         1 KZI      -0.180400
     26 N42          5.2070     2.4540     6.2340 nz         1 KZI      -0.807600
     27 HN5          3.4530     0.1960     5.6770 hn         1 KZI       0.468800
     28 HN6          1.7480    -0.9860    -1.5600 hn         1 KZI       0.487467
     29 HN6A         1.5590     0.6320    -1.7890 hn         1 KZI       0.487467
     30 HN9         -0.6180    -0.2250     1.6420 hn         1 KZI       0.511800
     31 H10         -2.5150    -1.9600     5.6390 ha         1 KZI       0.336000
     32 H11          7.1520    -0.7720     4.6640 hc         1 KZI       0.100200
     33 H11A         5.7600    -1.3730     3.7510 hc         1 KZI       0.100200
     34 H12         -1.3400    -0.3410     3.3480 ha         1 KZI       0.233500
     35 H15          5.0070     0.4610     2.4000 h4         1 KZI       0.045100
     36 H16          0.6100    -0.5120     5.4390 ha         1 KZI       0.233500
     37 H20          5.6950     1.1070     3.9690 h1         1 KZI       0.087700
     38 H21         -1.4270     0.5010     9.0690 h1         1 KZI       0.071867
     39 H21A        -0.0650    -0.6150     8.7290 h1         1 KZI       0.071867
     40 H21B        -1.7690    -1.1380     8.2760 h1         1 KZI       0.071867
     41 H24          6.9290     1.2530     6.1250 hx         1 KZI       0.140700
     42 H25          4.6110    -1.9680     5.8420 hc         1 KZI       0.091700
     43 H25A         5.7410    -0.6950     5.9460 hc         1 KZI       0.091700
     44 H26          7.2010    -1.0080     7.2180 hc         1 KZI       0.105700
     45 H26A         5.8100    -1.7400     7.9780 hc         1 KZI       0.105700
     46 H27         -4.1140    -1.6820     6.8250 h1         1 KZI       0.071867
     47 H27A        -4.1630    -3.4130     6.4180 h1         1 KZI       0.071867
     48 H27B        -5.4950    -2.3500     5.9540 h1         1 KZI       0.071867
     49 H28          5.8880     0.7030     8.1770 hc         1 KZI       0.082200
     50 H28A         4.3750     0.2200     7.3880 hc         1 KZI       0.082200
     51 HN42         4.3310     2.3410     6.7060 hn         1 KZI       0.463133
     52 HN4A         5.0440     2.8360     5.3230 hn         1 KZI       0.463133
     53 H63          2.8680     0.0640    -1.0070 hn         1 KZI       0.487467
     54 H423         5.7710     3.0680     6.7880 hn         1 KZI       0.463133
     55 N9          -0.1120    -0.1610     2.5040 nu         1 KZI      -0.727300
     56 N6           1.8900    -0.0770    -1.1650 nz         1 KZI      -0.671400
@<TRIPOS>BOND
     1     1    11 2
     2     2    16 1
     3     2    18 1
     4     3    20 1
     5     3    24 1
     6     4    10 ar
     7     4    19 ar
     8     5    17 1
     9     5    19 1
    10    56    11 1
    11     6    12 ar
    12     6    14 ar
    13    55    10 1
    14    55    15 1
    15     7    16 ar
    16     7    20 ar
    17     8    17 1
    18     8    22 1
    19     9    15 ar
    20     9    20 ar
    21    10    14 ar
    22    11    14 1
    23    12    19 ar
    24    13    15 ar
    25    13    16 ar
    26    17    21 1
    27    21    25 1
    28    21    26 1
    29    22    23 1
    30    23    25 1
    31     5    27 1
    32    56    28 1
    33    56    29 1
    34    55    30 1
    35     7    31 1
    36     8    32 1
    37     8    33 1
    38     9    34 1
    39    12    35 1
    40    13    36 1
    41    17    37 1
    42    18    38 1
    43    18    39 1
    44    18    40 1
    45    21    41 1
    46    22    42 1
    47    22    43 1
    48    23    44 1
    49    23    45 1
    50    24    46 1
    51    24    47 1
    52    24    48 1
    53    25    49 1
    54    25    50 1
    55    26    51 1
    56    26    52 1
    57    53    56 1
    58    54    26 1
@<TRIPOS>SUBSTRUCTURE
     1 KZI         1 TEMP              0 ****  ****    0 ROOT
