@<TRIPOS>MOLECULE
KZL
   55    57     1     0     0
SMALL
bcc


@<TRIPOS>ATOM
      1 C1           0.0000     0.0000     0.0000 ca         1 KZL       0.238600
      2 C2           1.3860     0.0000     0.0000 ca         1 KZL      -0.319000
      3 C3           2.0810     0.0000     1.2000 ca         1 KZL       0.238600
      4 C4           1.3890     0.0010     2.4020 ca         1 KZL      -0.231500
      5 C5           0.0000     0.0020     2.4020 ca         1 KZL       0.048600
      6 C6          -0.6940     0.0010     1.2000 ca         1 KZL      -0.231500
      7 O7          -0.6800     0.0050    -1.1780 os         1 KZL      -0.308400
      8 C8           0.0990     0.0090    -2.3750 c3         1 KZL       0.244700
      9 O9           3.4400    -0.0020     1.2000 os         1 KZL      -0.308400
     10 C10          4.0880    -0.0030    -0.0740 c3         1 KZL       0.244700
     11 N11         -0.6980     0.0030     3.6130 nu         1 KZL      -0.261300
     12 C12         -2.0760    -0.0080     3.6140 cc         1 KZL       0.651200
     13 N13         -2.7380    -1.0060     3.0240 nc         1 KZL      -0.692000
     14 C14         -4.0490    -1.0690     2.9930 cd         1 KZL       0.540400
     15 N15         -4.8360    -0.1120     3.5660 na         1 KZL       0.226000
     16 C16         -4.2530     0.9620     4.2010 cd         1 KZL      -0.182300
     17 C17         -2.7890     1.0280     4.2400 cd         1 KZL      -0.425900
     18 C18         -2.0970     2.1340     4.9010 c          1 KZL       0.393700
     19 O19         -0.8830     2.1210     4.9990 o          1 KZL      -0.487100
     20 N20         -2.8020     3.1680     5.4020 nz         1 KZL       0.210600
     21 N21         -5.2270     1.7160     4.6540 nc         1 KZL      -0.129000
     22 N22         -6.3610     1.1900     4.3470 nc         1 KZL      -0.213700
     23 C23         -6.1830     0.0770     3.6860 cd         1 KZL       0.154700
     24 N24         -4.6470    -2.1290     2.3670 nu         1 KZL      -0.510900
     25 C25         -3.8310    -3.2340     1.8570 c3         1 KZL       0.120200
     26 C26         -4.7420    -4.3040     1.2540 c3         1 KZL      -0.057200
     27 C27         -2.8790    -2.7090     0.7800 c3         1 KZL      -0.028600
     28 C28         -3.0190    -3.8400     3.0040 c3         1 KZL      -0.028600
     29 N29         -5.5210    -3.7230     0.1530 nz         1 KZL       0.066400
     30 H2           1.9280    -0.0010    -0.9380 ha         1 KZL       0.156000
     31 H4           1.9310     0.0020     3.3400 ha         1 KZL       0.124500
     32 H6          -1.7780     0.0010     1.1990 ha         1 KZL       0.124500
     33 H8          -0.5600    -0.0180    -3.2350 h1         1 KZL       0.007700
     34 H8A          0.7460    -0.8600    -2.3890 h1         1 KZL       0.007700
     35 H8B          0.7020     0.9090    -2.4110 h1         1 KZL       0.007700
     36 H10          5.1620    -0.0120     0.0680 h1         1 KZL       0.007700
     37 H10A         3.8040     0.8860    -0.6240 h1         1 KZL       0.007700
     38 H10B         3.7900    -0.8830    -0.6310 h1         1 KZL       0.007700
     39 HN11        -0.1970    -0.0310     4.4790 hn         1 KZL       0.325800
     40 HN20        -2.1740     3.8400     5.7960 hn         1 KZL       0.252800
     41 HN2A        -3.4230     2.8350     6.1130 hn         1 KZL       0.252800
     42 H23         -6.9590    -0.5740     3.3030 h5         1 KZL       0.049800
     43 HN24        -5.6450    -2.1710     2.2980 hn         1 KZL       0.289800
     44 H26         -5.4160    -4.6760     2.0170 hx         1 KZL       0.102200
     45 H26A        -4.1380    -5.1210     0.8770 hx         1 KZL       0.102200
     46 H27         -1.9030    -2.5300     1.2160 hc         1 KZL       0.042700
     47 H27A        -2.7910    -3.4420    -0.0130 hc         1 KZL       0.042700
     48 H27B        -3.2680    -1.7830     0.3740 hc         1 KZL       0.042700
     49 H28         -2.6550    -4.8170     2.7110 hc         1 KZL       0.042700
     50 H28A        -2.1790    -3.1940     3.2320 hc         1 KZL       0.042700
     51 H28B        -3.6490    -3.9370     3.8800 hc         1 KZL       0.042700
     52 HN29        -6.4930    -3.7320     0.3910 hn         1 KZL       0.233133
     53 HN2B        -5.2250    -2.7800    -0.0040 hn         1 KZL       0.233133
     54 H203        -3.3230     3.6030     4.6670 hn         1 KZL       0.252800
     55 H293        -5.3770    -4.2610    -0.6780 hn         1 KZL       0.233133
@<TRIPOS>BOND
     1     1     2 ar  
     2     1     6 ar  
     3     1     7 1   
     4     2     3 ar  
     5     2    30 1   
     6     3     4 ar  
     7     3     9 1   
     8     4     5 ar  
     9     4    31 1   
    10     5     6 ar  
    11     5    11 1   
    12     6    32 1   
    13     7     8 1   
    14     8    33 1   
    15     8    34 1   
    16     8    35 1   
    17     9    10 1   
    18    10    36 1   
    19    10    37 1   
    20    10    38 1   
    21    11    12 1   
    22    11    39 1   
    23    12    13 1   
    24    12    17 2   
    25    13    14 2   
    26    14    15 1   
    27    14    24 1   
    28    15    16 1   
    29    15    23 1   
    30    16    17 1   
    31    16    21 2   
    32    17    18 1   
    33    18    19 2   
    34    18    20 1   
    35    20    40 1   
    36    20    41 1   
    37    20    54 1   
    38    21    22 1   
    39    22    23 2   
    40    23    42 1   
    41    24    25 1   
    42    24    43 1   
    43    25    26 1   
    44    25    27 1   
    45    25    28 1   
    46    26    29 1   
    47    26    44 1   
    48    26    45 1   
    49    27    46 1   
    50    27    47 1   
    51    27    48 1   
    52    28    49 1   
    53    28    50 1   
    54    28    51 1   
    55    29    52 1   
    56    29    53 1   
    57    29    55 1   
@<TRIPOS>SUBSTRUCTURE
     1 KZL         1 TEMP              0 ****  ****    0 ROOT
