@<TRIPOS>MOLECULE
molecule
   70    74     1     0     0
SMALL
bcc


@<TRIPOS>ATOM
      1 O1           0.0000     0.0000     0.0000 o          1 KZM      -0.460100
      2 O2           0.2630    -4.1290     5.1740 os         1 KZM      -0.334900
      3 O3          -4.0130    -2.6340     3.7290 os         1 KZM      -0.334900
      4 N4           1.9740     0.0000     3.6360 nc         1 KZM      -0.833000
      5 N5           3.9230     0.1370     4.8720 nu         1 KZM      -0.897900
      6 C7           3.4100     0.1550     1.2980 cd         1 KZM       0.080700
      7 C9          -1.8810    -3.3910     4.4570 ca         1 KZM      -0.332000
      8 C10          2.6550     1.4490     6.5000 c3         1 KZM      -0.126400
      9 C11         -2.0720    -1.3970     3.1330 ca         1 KZM      -0.250000
     10 C12          1.2770    -0.0370     2.5000 cc         1 KZM       0.879200
     11 C13          1.2170     0.0000     0.0000 c          1 KZM       0.546700
     12 N14          4.0280     0.1840     2.5220 na         1 KZM      -0.038800
     13 C15          0.0900    -2.1520     3.8640 ca         1 KZM      -0.250000
     14 C16          1.9490     0.0380     1.2680 cd         1 KZM      -0.442900
     15 C17         -0.6940    -1.2340     3.1780 ca         1 KZM       0.220600
     16 C18         -0.5040    -3.2300     4.5020 ca         1 KZM       0.223100
     17 C19          3.1470     0.0540     6.1110 c3         1 KZM       0.167500
     18 C20         -0.4150    -5.2150     5.8090 c3         1 KZM       0.122700
     19 C21          3.2840     0.1050     3.6600 cd         1 KZM       0.917400
     20 C22         -2.6640    -2.4750     3.7720 ca         1 KZM       0.223100
     21 C23          4.0300    -0.5060     7.2290 c3         1 KZM       0.052500
     22 C24          3.8570     2.3730     6.7110 c3         1 KZM      -0.439400
     23 C25          4.7400     1.8140     7.8290 c3         1 KZM      -0.108400
     24 C26         -4.5560    -3.7670     4.4090 c3         1 KZM       0.122700
     25 C27          5.2310     0.4170     7.4400 c3         1 KZM      -0.171400
     26 N28          4.5020    -1.8460     6.8560 nz         1 KZM      -0.809600
     27 N29          4.3420     0.2460     0.3720 nc         1 KZM      -0.505300
     28 N30          5.4000     0.2990     2.2630 nd         1 KZM      -0.588100
     29 C31          5.5450     0.3320     0.9540 cc         1 KZM       0.702900
     30 C32          6.8380     0.4490     0.2360 ca         1 KZM      -0.114900
     31 C33          6.8650     0.4750    -1.1570 ca         1 KZM      -0.112000
     32 C34          8.0280     0.5390     0.9540 ca         1 KZM      -0.112000
     33 C35          8.0700     0.5840    -1.8220 ca         1 KZM      -0.092000
     34 C36          9.2330     0.6470     0.2770 ca         1 KZM       0.136100
     35 C37          9.2510     0.6670    -1.1100 ca         1 KZM      -0.157000
     36 O66         10.3970     0.7360     0.9740 oh         1 KZM      -0.492100
     37 HN6          2.5190    -0.8140    -1.1630 hn         1 KZM       0.483800
     38 HN6A         1.2280    -0.1300    -1.9090 hn         1 KZM       0.483800
     39 HN8         -0.6660     0.5410     2.0840 hn         1 KZM       0.498800
     40 H9          -2.3470    -4.2100     4.9930 ha         1 KZM       0.163000
     41 H10          2.0400     1.8440     5.7010 hc         1 KZM       0.100200
     42 H10A         2.0840     1.3840     7.4190 hc         1 KZM       0.100200
     43 H11         -2.6820    -0.6920     2.5810 ha         1 KZM       0.142500
     44 H15          1.1600    -2.0010     3.9390 ha         1 KZM       0.142500
     45 H19          2.2970    -0.6000     5.9560 h1         1 KZM       0.123700
     46 H20         -1.0360    -5.7490     5.1010 h1         1 KZM       0.055533
     47 H20A        -1.0030    -4.6890     6.5510 h1         1 KZM       0.055533
     48 H20B         0.2840    -5.8850     6.2960 h1         1 KZM       0.055533
     49 H23          3.4530    -0.5600     8.1440 hx         1 KZM       0.141700
     50 H24          3.3440     3.1080     7.3180 hc         1 KZM       0.262700
     51 H24A         3.9210     1.3080     6.9030 hc         1 KZM       0.262700
     52 H25          4.1660     1.7530     8.7450 hc         1 KZM       0.098200
     53 H25A         5.5910     2.4680     7.9730 hc         1 KZM       0.098200
     54 H26         -3.8700    -4.0780     5.1880 h1         1 KZM       0.055533
     55 H26A        -4.7280    -4.5840     3.7200 h1         1 KZM       0.055533
     56 H26B        -5.4960    -3.4750     4.8620 h1         1 KZM       0.055533
     57 H27          5.8000     0.4810     6.5200 hc         1 KZM       0.092200
     58 H27A         5.8580     0.0220     8.2300 hc         1 KZM       0.092200
     59 HN28         5.5030    -1.8640     6.8630 hn         1 KZM       0.465800
     60 HN2A         4.1740    -2.0720     5.9370 hn         1 KZM       0.465800
     61 H33          5.9390     0.4410    -1.7180 ha         1 KZM       0.133000
     62 H34          8.0190     0.4640     2.0350 ha         1 KZM       0.154000
     63 H35          8.0880     0.6120    -2.9040 ha         1 KZM       0.155000
     64 H37         10.1870     0.8210    -1.6350 ha         1 KZM       0.160000
     65 HO66        11.0700     0.2660     0.5100 ho         1 KZM       0.438000
     66 HN5          4.9200     0.2090     4.9110 hn         1 KZM       0.484800
     67 H63          2.4070     0.8140    -1.2970 hn         1 KZM       0.483800
     68 H283         4.1560    -2.5150     7.5150 hn         1 KZM       0.465800
     69 N8          -0.0970    -0.1490     2.5330 nu         1 KZM      -0.754300
     70 N6           1.8910    -0.0340    -1.1660 nz         1 KZM      -0.667400
@<TRIPOS>BOND
     1     1    11 2
     2     2    16 1
     3     2    18 1
     4     3    20 1
     5     3    24 1
     6     4    10 1
     7     4    19 2
     8     5    17 1
     9     5    19 1
    10    70    11 1
    11     6    12 1
    12     6    14 1
    13     6    27 2
    14    69    10 1
    15    69    15 1
    16     7    16 ar
    17     7    20 ar
    18     8    17 1
    19     8    22 1
    20     9    15 ar
    21     9    20 ar
    22    10    14 2
    23    11    14 1
    24    12    19 1
    25    12    28 1
    26    13    15 ar
    27    13    16 ar
    28    17    21 1
    29    21    25 1
    30    21    26 1
    31    22    23 1
    32    23    25 1
    33    27    29 1
    34    28    29 2
    35    29    30 1
    36    30    31 ar
    37    30    32 ar
    38    31    33 ar
    39    32    34 ar
    40    33    35 ar
    41    34    35 ar
    42    34    36 1
    43    70    37 1
    44    70    38 1
    45    69    39 1
    46     7    40 1
    47     8    41 1
    48     8    42 1
    49     9    43 1
    50    13    44 1
    51    17    45 1
    52    18    46 1
    53    18    47 1
    54    18    48 1
    55    21    49 1
    56    22    50 1
    57    22    51 1
    58    23    52 1
    59    23    53 1
    60    24    54 1
    61    24    55 1
    62    24    56 1
    63    25    57 1
    64    25    58 1
    65    26    59 1
    66    26    60 1
    67    31    61 1
    68    32    62 1
    69    33    63 1
    70    35    64 1
    71    36    65 1
    72     5    66 1
    73    67    70 1
    74    68    26 1
@<TRIPOS>SUBSTRUCTURE
     1 KZM         1 TEMP              0 ****  ****    0 ROOT
