@<TRIPOS>MOLECULE
KZM
   70    74     1     0     0
SMALL
bcc


@<TRIPOS>ATOM
      1 O1           0.0000     0.0000     0.0000 o          1 KZM      -0.495100
      2 O2           0.2630    -4.1290     5.1740 os         1 KZM      -0.318400
      3 O3          -4.0130    -2.6340     3.7290 os         1 KZM      -0.318400
      4 N4           1.9740     0.0000     3.6360 nc         1 KZM      -0.731000
      5 N5           3.9230     0.1370     4.8720 nu         1 KZM      -0.488900
      6 C7           3.4100     0.1550     1.2980 cd         1 KZM      -0.084300
      7 C9          -1.8810    -3.3910     4.4570 ca         1 KZM      -0.330000
      8 C10          2.6550     1.4490     6.5000 c3         1 KZM      -0.091400
      9 C11         -2.0720    -1.3970     3.1330 ca         1 KZM      -0.233000
     10 C12          1.2770    -0.0370     2.5000 cc         1 KZM       0.672200
     11 C13          1.2170     0.0000     0.0000 c          1 KZM       0.397700
     12 N14          4.0280     0.1840     2.5220 na         1 KZM       0.414200
     13 C15          0.0900    -2.1520     3.8640 ca         1 KZM      -0.233000
     14 C16          1.9490     0.0380     1.2680 cd         1 KZM      -0.462900
     15 C17         -0.6940    -1.2340     3.1780 ca         1 KZM       0.057600
     16 C18         -0.5040    -3.2300     4.5020 ca         1 KZM       0.240600
     17 C19          3.1470     0.0540     6.1110 c3         1 KZM       0.079500
     18 C20         -0.4150    -5.2150     5.8090 c3         1 KZM       0.240700
     19 C21          3.2840     0.1050     3.6600 cd         1 KZM       0.575400
     20 C22         -2.6640    -2.4750     3.7720 ca         1 KZM       0.240600
     21 C23          4.0300    -0.5060     7.2290 c3         1 KZM      -0.126500
     22 C24          3.8570     2.3730     6.7110 c3         1 KZM      -0.401400
     23 C25          4.7400     1.8140     7.8290 c3         1 KZM      -0.064400
     24 C26         -4.5560    -3.7670     4.4090 c3         1 KZM       0.240700
     25 C27          5.2310     0.4170     7.4400 c3         1 KZM      -0.090400
     26 N28          4.5020    -1.8460     6.8560 nz         1 KZM       0.075400
     27 N29          4.3420     0.2460     0.3720 nc         1 KZM      -0.451300
     28 N30          5.4000     0.2990     2.2630 nd         1 KZM      -0.746100
     29 C31          5.5450     0.3320     0.9540 cc         1 KZM       0.731900
     30 C32          6.8380     0.4490     0.2360 ca         1 KZM      -0.135900
     31 C33          6.8650     0.4750    -1.1570 ca         1 KZM      -0.090000
     32 C34          8.0280     0.5390     0.9540 ca         1 KZM      -0.089000
     33 C35          8.0700     0.5840    -1.8220 ca         1 KZM      -0.059000
     34 C36          9.2330     0.6470     0.2770 ca         1 KZM       0.151100
     35 C37          9.2510     0.6670    -1.1100 ca         1 KZM      -0.132000
     36 O66         10.3970     0.7360     0.9740 oh         1 KZM      -0.473100
     37 HN6          2.5190    -0.8140    -1.1630 hn         1 KZM       0.251800
     38 HN6A         1.2280    -0.1300    -1.9090 hn         1 KZM       0.251800
     39 HN8         -0.6660     0.5410     2.0840 hn         1 KZM       0.327800
     40 H9          -2.3470    -4.2100     4.9930 ha         1 KZM       0.162000
     41 H10          2.0400     1.8440     5.7010 hc         1 KZM       0.069700
     42 H10A         2.0840     1.3840     7.4190 hc         1 KZM       0.069700
     43 H11         -2.6820    -0.6920     2.5810 ha         1 KZM       0.123000
     44 H15          1.1600    -2.0010     3.9390 ha         1 KZM       0.123000
     45 H19          2.2970    -0.6000     5.9560 h1         1 KZM       0.094700
     46 H20         -1.0360    -5.7490     5.1010 h1         1 KZM       0.009700
     47 H20A        -1.0030    -4.6890     6.5510 h1         1 KZM       0.009700
     48 H20B         0.2840    -5.8850     6.2960 h1         1 KZM       0.009700
     49 H23          3.4530    -0.5600     8.1440 hx         1 KZM       0.118700
     50 H24          3.3440     3.1080     7.3180 hc         1 KZM       0.242700
     51 H24A         3.9210     1.3080     6.9030 hc         1 KZM       0.242700
     52 H25          4.1660     1.7530     8.7450 hc         1 KZM       0.066700
     53 H25A         5.5910     2.4680     7.9730 hc         1 KZM       0.066700
     54 H26         -3.8700    -4.0780     5.1880 h1         1 KZM       0.009700
     55 H26A        -4.7280    -4.5840     3.7200 h1         1 KZM       0.009700
     56 H26B        -5.4960    -3.4750     4.8620 h1         1 KZM       0.009700
     57 H27          5.8000     0.4810     6.5200 hc         1 KZM       0.063700
     58 H27A         5.8580     0.0220     8.2300 hc         1 KZM       0.063700
     59 HN28         5.5030    -1.8640     6.8630 hn         1 KZM       0.235467
     60 HN2A         4.1740    -2.0720     5.9370 hn         1 KZM       0.235467
     61 H33          5.9390     0.4410    -1.7180 ha         1 KZM       0.103000
     62 H34          8.0190     0.4640     2.0350 ha         1 KZM       0.125000
     63 H35          8.0880     0.6120    -2.9040 ha         1 KZM       0.119000
     64 H37         10.1870     0.8210    -1.6350 ha         1 KZM       0.128000
     65 HO66        11.0700     0.2660     0.5100 ho         1 KZM       0.418000
     66 HN5          4.9200     0.2090     4.9110 hn         1 KZM       0.332800
     67 H63          2.4070     0.8140    -1.2970 hn         1 KZM       0.251800
     68 H283         4.1560    -2.5150     7.5150 hn         1 KZM       0.235467
     69 N8          -0.0970    -0.1490     2.5330 nu         1 KZM      -0.261300
     70 N6           1.8910    -0.0340    -1.1660 nz         1 KZM       0.208600
@<TRIPOS>BOND
     1     1    11 2   
     2     2    16 1   
     3     2    18 1   
     4     3    20 1   
     5     3    24 1   
     6     4    10 1   
     7     4    19 2   
     8     5    17 1   
     9     5    19 1   
    10     5    66 1   
    11     6    12 1   
    12     6    14 1   
    13     6    27 2   
    14     7    16 ar  
    15     7    20 ar  
    16     7    40 1   
    17     8    17 1   
    18     8    22 1   
    19     8    41 1   
    20     8    42 1   
    21     9    15 ar  
    22     9    20 ar  
    23     9    43 1   
    24    10    14 2   
    25    10    69 1   
    26    11    14 1   
    27    11    70 1   
    28    12    19 1   
    29    12    28 1   
    30    13    15 ar  
    31    13    16 ar  
    32    13    44 1   
    33    15    69 1   
    34    17    21 1   
    35    17    45 1   
    36    18    46 1   
    37    18    47 1   
    38    18    48 1   
    39    21    25 1   
    40    21    26 1   
    41    21    49 1   
    42    22    23 1   
    43    22    50 1   
    44    22    51 1   
    45    23    25 1   
    46    23    52 1   
    47    23    53 1   
    48    24    54 1   
    49    24    55 1   
    50    24    56 1   
    51    25    57 1   
    52    25    58 1   
    53    26    59 1   
    54    26    60 1   
    55    26    68 1   
    56    27    29 1   
    57    28    29 2   
    58    29    30 1   
    59    30    31 ar  
    60    30    32 ar  
    61    31    33 ar  
    62    31    61 1   
    63    32    34 ar  
    64    32    62 1   
    65    33    35 ar  
    66    33    63 1   
    67    34    35 ar  
    68    34    36 1   
    69    35    64 1   
    70    36    65 1   
    71    37    70 1   
    72    38    70 1   
    73    39    69 1   
    74    67    70 1   
@<TRIPOS>SUBSTRUCTURE
     1 KZM         1 TEMP              0 ****  ****    0 ROOT
