@<TRIPOS>MOLECULE
molecule
   43    46     1     0     0
SMALL
bcc


@<TRIPOS>ATOM
      1 CAA          0.0000     0.0000     0.0000 cc         1 KZQ      -0.116100
      2 NAB          1.3410     0.0000     0.0000 na         1 KZQ       0.020800
      3 NAC          1.8190     0.0000     1.3160 nc         1 KZQ      -0.271400
      4 CAD          0.7900    -0.0010     2.1450 ca         1 KZQ      -0.041000
      5 CAE         -0.4240    -0.0010     1.3160 ca         1 KZQ      -0.180000
      6 CAF          0.6500    -0.0020     3.5510 ca         1 KZQ      -0.098000
      7 CAG         -0.5880    -0.0020     4.1020 ca         1 KZQ      -0.099000
      8 CAH         -1.7480    -0.0020     3.3130 ca         1 KZQ       0.025600
      9 CAI         -1.6840    -0.0000     1.9520 ca         1 KZQ      -0.101000
     10 NAJ         -3.0000    -0.0020     3.9390 ns         1 KZQ      -0.474100
     11 CAK         -3.1840    -0.7040     5.0760 c          1 KZQ       0.704300
     12 OAL         -2.2310    -1.2090     5.6410 o          1 KZQ      -0.589100
     13 CAM         -4.4870    -0.8520     5.6120 ce         1 KZQ      -0.301400
     14 CAN         -5.0680     0.1410     6.3190 c2         1 KZQ       0.082400
     15 NAO         -6.3250    -0.0030     6.8360 ns         1 KZQ      -0.464100
     16 CAP         -7.0650    -1.1100     6.6900 c          1 KZQ       0.817500
     17 NAQ         -6.6210    -2.1850     6.0100 ns         1 KZQ      -0.576900
     18 CAR         -5.2780    -2.1280     5.4080 c3         1 KZQ       0.227200
     19 CAS         -4.3180     1.4290     6.5400 c3         1 KZQ      -0.070900
     20 OAT         -8.1730    -1.1450     7.1860 o          1 KZQ      -0.674500
     21 CAU         -5.4190    -2.3550     3.9250 ca         1 KZQ      -0.137300
     22 CAV         -6.2930    -1.5770     3.1870 ca         1 KZQ      -0.085000
     23 CAW         -6.4220    -1.7850     1.8270 ca         1 KZQ      -0.169000
     24 CAX         -5.6770    -2.7700     1.2020 ca         1 KZQ       0.136900
     25 CAY         -4.8020    -3.5470     1.9430 ca         1 KZQ      -0.169000
     26 CAZ         -4.6700    -3.3360     3.3010 ca         1 KZQ      -0.085000
     27 FBA         -5.8030    -2.9730    -0.1270 f          1 KZQ      -0.139900
     28 HAA         -0.6380    -0.0000    -0.8760 h4         1 KZQ       0.175000
     29 HAF          1.5280    -0.0010     4.1850 ha         1 KZQ       0.145000
     30 HAG         -0.6840    -0.0040     5.1810 ha         1 KZQ       0.165000
     31 HAI         -2.5930    -0.0010     1.3630 ha         1 KZQ       0.130000
     32 HNAJ        -3.7420     0.5600     3.5720 hn         1 KZQ       0.324500
     33 HNAO        -6.7140     0.7610     7.3520 hn         1 KZQ       0.350500
     34 HNAQ        -7.1900    -3.0030     5.9170 hn         1 KZQ       0.364500
     35 HAR         -4.6980    -2.9450     5.8210 h1         1 KZQ       0.071700
     36 HAS         -4.3600     2.0310     5.6410 hc         1 KZQ       0.062700
     37 HASA        -4.7710     1.9740     7.3600 hc         1 KZQ       0.062700
     38 HASB        -3.2850     1.2090     6.7800 hc         1 KZQ       0.062700
     39 HAV         -6.8760    -0.8060     3.6750 ha         1 KZQ       0.143000
     40 HAW         -7.1070    -1.1760     1.2490 ha         1 KZQ       0.147500
     41 HAY         -4.2160    -4.3170     1.4550 ha         1 KZQ       0.147500
     42 HAZ         -3.9850    -3.9440     3.8800 ha         1 KZQ       0.143000
     43 HNAB         1.9150     0.0000    -0.8200 hn         1 KZQ       0.330700
@<TRIPOS>BOND
     1     1     2 1
     2     1     5 2
     3     1    28 1
     4     2     3 1
     5     3     4 2
     6     5     4 ar
     7     4     6 ar
     8     9     5 ar
     9     7     6 ar
    10     6    29 1
    11     8     7 ar
    12     7    30 1
    13     9     8 ar
    14     8    10 1
    15     9    31 1
    16    10    11 1
    17    10    32 1
    18    13    11 1
    19    11    12 2
    20    18    13 1
    21    13    14 2
    22    15    33 1
    23    15    14 1
    24    14    19 1
    25    16    15 1
    26    17    16 1
    27    20    16 2
    28    18    17 1
    29    17    34 1
    30    21    18 1
    31    18    35 1
    32    19    36 1
    33    19    37 1
    34    19    38 1
    35    22    21 ar
    36    21    26 ar
    37    23    22 ar
    38    22    39 1
    39    23    24 ar
    40    23    40 1
    41    27    24 1
    42    24    25 ar
    43    25    26 ar
    44    25    41 1
    45    26    42 1
    46     2    43 1
@<TRIPOS>SUBSTRUCTURE
     1 KZQ         1 TEMP              0 ****  ****    0 ROOT
