@<TRIPOS>MOLECULE
KZQ
   43    46     1     0     0
SMALL
bcc


@<TRIPOS>ATOM
      1 CAA          0.0000     0.0000     0.0000 cc         1 KZQ      -0.281100
      2 NAB          1.3410     0.0000     0.0000 na         1 KZQ       0.550800
      3 NAC          1.8190     0.0000     1.3160 nc         1 KZQ      -0.440400
      4 CAD          0.7900    -0.0010     2.1450 ca         1 KZQ      -0.006000
      5 CAE         -0.4240    -0.0010     1.3160 ca         1 KZQ      -0.182000
      6 CAF          0.6500    -0.0020     3.5510 ca         1 KZQ      -0.067000
      7 CAG         -0.5880    -0.0020     4.1020 ca         1 KZQ      -0.085000
      8 CAH         -1.7480    -0.0020     3.3130 ca         1 KZQ      -0.120400
      9 CAI         -1.6840    -0.0000     1.9520 ca         1 KZQ      -0.064000
     10 NAJ         -3.0000    -0.0020     3.9390 ns         1 KZQ      -0.035100
     11 CAK         -3.1840    -0.7040     5.0760 c          1 KZQ       0.618300
     12 OAL         -2.2310    -1.2090     5.6410 o          1 KZQ      -0.632100
     13 CAM         -4.4870    -0.8520     5.6120 ce         1 KZQ      -0.316400
     14 CAN         -5.0680     0.1410     6.3190 c2         1 KZQ      -0.078600
     15 NAO         -6.3250    -0.0030     6.8360 ns         1 KZQ      -0.006100
     16 CAP         -7.0650    -1.1100     6.6900 c          1 KZQ       0.595500
     17 NAQ         -6.6210    -2.1850     6.0100 ns         1 KZQ      -0.184900
     18 CAR         -5.2780    -2.1280     5.4080 c3         1 KZQ       0.164200
     19 CAS         -4.3180     1.4290     6.5400 c3         1 KZQ       0.045100
     20 OAT         -8.1730    -1.1450     7.1860 o          1 KZQ      -0.722500
     21 CAU         -5.4190    -2.3550     3.9250 ca         1 KZQ      -0.153300
     22 CAV         -6.2930    -1.5770     3.1870 ca         1 KZQ      -0.057000
     23 CAW         -6.4220    -1.7850     1.8270 ca         1 KZQ      -0.133500
     24 CAX         -5.6770    -2.7700     1.2020 ca         1 KZQ       0.109900
     25 CAY         -4.8020    -3.5470     1.9430 ca         1 KZQ      -0.133500
     26 CAZ         -4.6700    -3.3360     3.3010 ca         1 KZQ      -0.057000
     27 FBA         -5.8030    -2.9730    -0.1270 f          1 KZQ      -0.126900
     28 HAA         -0.6380    -0.0000    -0.8760 h4         1 KZQ       0.148000
     29 HAF          1.5280    -0.0010     4.1850 ha         1 KZQ       0.114000
     30 HAG         -0.6840    -0.0040     5.1810 ha         1 KZQ       0.144000
     31 HAI         -2.5930    -0.0010     1.3630 ha         1 KZQ       0.103000
     32 HNAJ        -3.7420     0.5600     3.5720 hn         1 KZQ       0.168500
     33 HNAO        -6.7140     0.7610     7.3520 hn         1 KZQ       0.186500
     34 HNAQ        -7.1900    -3.0030     5.9170 hn         1 KZQ       0.212500
     35 HAR         -4.6980    -2.9450     5.8210 h1         1 KZQ       0.040700
     36 HAS         -4.3600     2.0310     5.6410 hc         1 KZQ       0.023033
     37 HASA        -4.7710     1.9740     7.3600 hc         1 KZQ       0.023033
     38 HASB        -3.2850     1.2090     6.7800 hc         1 KZQ       0.023033
     39 HAV         -6.8760    -0.8060     3.6750 ha         1 KZQ       0.115000
     40 HAW         -7.1070    -1.1760     1.2490 ha         1 KZQ       0.122000
     41 HAY         -4.2160    -4.3170     1.4550 ha         1 KZQ       0.122000
     42 HAZ         -3.9850    -3.9440     3.8800 ha         1 KZQ       0.115000
     43 HNAB         1.9150     0.0000    -0.8200 hn         1 KZQ       0.139700
@<TRIPOS>BOND
     1     1     2 1   
     2     1     5 2   
     3     1    28 1   
     4     2     3 1   
     5     2    43 1   
     6     3     4 2   
     7     4     5 ar  
     8     4     6 ar  
     9     5     9 ar  
    10     6     7 ar  
    11     6    29 1   
    12     7     8 ar  
    13     7    30 1   
    14     8     9 ar  
    15     8    10 1   
    16     9    31 1   
    17    10    11 1   
    18    10    32 1   
    19    11    12 2   
    20    11    13 1   
    21    13    14 2   
    22    13    18 1   
    23    14    15 1   
    24    14    19 1   
    25    15    16 1   
    26    15    33 1   
    27    16    17 1   
    28    16    20 2   
    29    17    18 1   
    30    17    34 1   
    31    18    21 1   
    32    18    35 1   
    33    19    36 1   
    34    19    37 1   
    35    19    38 1   
    36    21    22 ar  
    37    21    26 ar  
    38    22    23 ar  
    39    22    39 1   
    40    23    24 ar  
    41    23    40 1   
    42    24    25 ar  
    43    24    27 1   
    44    25    26 ar  
    45    25    41 1   
    46    26    42 1   
@<TRIPOS>SUBSTRUCTURE
     1 KZQ         1 TEMP              0 ****  ****    0 ROOT
