@<TRIPOS>MOLECULE
molecule
   73    78     1     0     0
SMALL
bcc


@<TRIPOS>ATOM
      1 CAA          0.0000     0.0000     0.0000 c3         1 KZZ       0.127700
      2 OAZ          1.4300     0.0000     0.0000 os         1 KZZ      -0.320900
      3 CBD          2.0460     0.0000     1.2100 ca         1 KZZ       0.170100
      4 CAK          1.3060    -0.0050     2.3590 ca         1 KZZ      -0.248000
      5 CAJ          1.9230    -0.0050     3.6080 ca         1 KZZ      -0.088000
      6 CBK          3.4530    -0.0010     1.2900 ca         1 KZZ      -0.044000
      7 CAP          4.2490    -0.0000     0.1330 ca         1 KZZ      -0.092000
      8 CAG          5.6060     0.0000     0.2490 ca         1 KZZ      -0.162000
      9 CAF          6.2190    -0.0000     1.4990 ca         1 KZZ      -0.137000
     10 CAO          5.4790    -0.0000     2.6420 ca         1 KZZ      -0.132000
     11 CBJ          4.0770    -0.0000     2.5620 ca         1 KZZ       0.040000
     12 CBC          3.2800     0.0010     3.7200 ca         1 KZZ      -0.120300
     13 CAV          3.9240     0.0020     5.0820 c3         1 KZZ       0.223100
     14 NBL          4.3450     1.3670     5.4230 n3         1 KZZ      -0.732600
     15 CAS          3.1830     2.2520     5.5870 c3         1 KZZ       0.161800
     16 CAR          3.6370     3.7180     5.5530 c3         1 KZZ      -0.008100
     17 CAW          5.2010     1.3720     6.6250 c3         1 KZZ       0.244100
     18 CBF          5.4950     2.8010     6.9850 cc         1 KZZ      -0.184600
     19 CBG          4.7980     3.8630     6.5040 cd         1 KZZ      -0.145600
     20 NBM          5.3400     4.9680     7.0340 na         1 KZZ       0.127400
     21 CAT          4.8860     6.3360     6.7710 c3         1 KZZ       0.057300
     22 CAQ          3.8180     6.7250     7.7940 c3         1 KZZ       0.061800
     23 NAC          3.3630     8.0960     7.5300 nz         1 KZZ      -0.808600
     24 NAX          6.3200     4.6510     7.8090 nd         1 KZZ      -0.541800
     25 CBE          6.4760     3.3370     7.8320 cc         1 KZZ       0.311800
     26 CBA          7.4880     2.5820     8.6000 c          1 KZZ       0.595600
     27 OAB          7.5220     1.3690     8.5300 o          1 KZZ      -0.588100
     28 NAY          8.3720     3.2380     9.3760 ns         1 KZZ      -0.566900
     29 CAU          9.3750     2.4890    10.1380 c3         1 KZZ       0.161300
     30 CBB         10.2340     3.4510    10.9170 ca         1 KZZ      -0.118300
     31 CBI          9.7720     3.9850    12.1320 ca         1 KZZ      -0.025000
     32 CAN          8.5080     3.6470    12.6450 ca         1 KZZ      -0.129000
     33 CAE          8.0950     4.1830    13.8250 ca         1 KZZ      -0.121000
     34 CAD          8.9060     5.0670    14.5360 ca         1 KZZ      -0.128000
     35 CAL         10.1360     5.4180    14.0700 ca         1 KZZ      -0.109000
     36 CBH         10.5980     4.8840    12.8540 ca         1 KZZ      -0.041000
     37 CAM         11.8610     5.2230    12.3420 ca         1 KZZ      -0.100000
     38 CAH         12.2760     4.6850    11.1620 ca         1 KZZ      -0.132000
     39 CAI         11.4650     3.8020    10.4520 ca         1 KZZ      -0.097000
     40 H1          -0.3610     0.8830     0.5130 h1         1 KZZ       0.045033
     41 H2          -0.3610    -0.8860     0.5080 h1         1 KZZ       0.045033
     42 H3          -0.3610     0.0030    -1.0210 h1         1 KZZ       0.045033
     43 H4           0.2240    -0.0100     2.2980 ha         1 KZZ       0.136000
     44 H5           1.3140    -0.0100     4.5030 ha         1 KZZ       0.124000
     45 H6           3.9760     0.0050    -0.9150 ha         1 KZZ       0.149000
     46 H7           6.2210    -0.0210    -0.6420 ha         1 KZZ       0.131000
     47 H8           7.2910     0.1520     1.4570 ha         1 KZZ       0.131000
     48 H9           6.2760    -0.4130     3.2500 ha         1 KZZ       0.157000
     49 H10          4.7890    -0.6510     5.0730 h1         1 KZZ       0.048200
     50 H11          3.2130    -0.3520     5.8190 h1         1 KZZ       0.048200
     51 H13          2.5150     2.0870     4.7500 h1         1 KZZ       0.052700
     52 H14          2.7460     2.0570     6.5590 h1         1 KZZ       0.052700
     53 H15          3.9820     3.9470     4.5520 hc         1 KZZ       0.053200
     54 H16          2.8220     4.3370     5.9100 hc         1 KZZ       0.053200
     55 H17          4.6470     0.9210     7.4400 h1         1 KZZ       0.073700
     56 H18          6.1350     0.8820     6.3800 h1         1 KZZ       0.073700
     57 H19          4.4680     6.3920     5.7730 h1         1 KZZ       0.086700
     58 H20          5.7260     7.0160     6.8490 h1         1 KZZ       0.086700
     59 H21          2.9780     6.0440     7.7150 hx         1 KZZ       0.126700
     60 H22          4.2360     6.6690     8.7910 hx         1 KZZ       0.126700
     61 H23          4.1310     8.7290     7.6360 hn         1 KZZ       0.460467
     62 H24          3.0070     8.1560     6.5960 hn         1 KZZ       0.460467
     63 H26          8.3690     4.2390     9.4010 hn         1 KZZ       0.327500
     64 H27          8.8780     1.8130    10.8220 h1         1 KZZ       0.066200
     65 H28          9.9970     1.9210     9.4560 h1         1 KZZ       0.066200
     66 H29          7.8670     2.9620    12.1040 ha         1 KZZ       0.137000
     67 H30          7.1200     3.9200    14.2180 ha         1 KZZ       0.129000
     68 H31          8.5520     5.4800    15.4730 ha         1 KZZ       0.133000
     69 H32         10.7550     6.1060    14.6330 ha         1 KZZ       0.138000
     70 H33         12.5020     5.9080    12.8840 ha         1 KZZ       0.140000
     71 H34         13.2500     4.9470    10.7690 ha         1 KZZ       0.137000
     72 H35         11.8190     3.3890     9.5160 ha         1 KZZ       0.136000
     73 HAC3         2.6540     8.3450     8.1910 hn         1 KZZ       0.460467
@<TRIPOS>BOND
     1    34    35 ar
     2    34    33 ar
     3    35    36 ar
     4    33    32 ar
     5    36    37 ar
     6    36    31 ar
     7    37    38 ar
     8     1     2 1
     9    32    31 ar
    10    31    30 ar
    11    38    39 ar
    12     2     3 1
    13     4     3 ar
    14     4     5 ar
    15    30    39 ar
    16    30    29 1
    17     3     6 ar
    18     5    12 ar
    19    29    28 1
    20    27    26 2
    21     6     7 ar
    22     6    11 ar
    23    28    26 1
    24    26    25 1
    25    12    11 ar
    26    12    13 1
    27     7     8 ar
    28    11    10 ar
    29    17    18 1
    30    17    14 1
    31    13    14 1
    32    25    18 1
    33    25    24 2
    34    18    19 2
    35     8     9 ar
    36    14    15 1
    37    10     9 ar
    38    24    20 1
    39    15    16 1
    40    19    20 1
    41    19    16 1
    42    20    21 1
    43    21    22 1
    44    23    22 1
    45     1    40 1
    46     1    41 1
    47     1    42 1
    48     4    43 1
    49     5    44 1
    50     7    45 1
    51     8    46 1
    52     9    47 1
    53    10    48 1
    54    13    49 1
    55    13    50 1
    56    15    51 1
    57    15    52 1
    58    16    53 1
    59    16    54 1
    60    17    55 1
    61    17    56 1
    62    21    57 1
    63    21    58 1
    64    22    59 1
    65    22    60 1
    66    23    61 1
    67    23    62 1
    68    28    63 1
    69    29    64 1
    70    29    65 1
    71    32    66 1
    72    33    67 1
    73    34    68 1
    74    35    69 1
    75    37    70 1
    76    38    71 1
    77    39    72 1
    78    73    23 1
@<TRIPOS>SUBSTRUCTURE
     1 KZZ         1 TEMP              0 ****  ****    0 ROOT
