@<TRIPOS>MOLECULE
D01
   48    52     1     0     0
SMALL
bcc


@<TRIPOS>ATOM
      1 N1           0.0000     0.0000     0.0000 na         1 D01       0.428600
      2 C1           1.3780     0.0000     0.0000 ca         1 D01      -0.216200
      3 C2           2.3340     0.0000     1.0110 ca         1 D01      -0.098000
      4 C3           3.6730    -0.0000     0.6900 ca         1 D01      -0.066000
      5 C4           4.0840    -0.0010    -0.6370 ca         1 D01      -0.068600
      6 Cl1          5.7770    -0.0020    -1.0170 cl         1 D01      -0.026400
      7 C5           3.1540    -0.0020    -1.6540 ca         1 D01      -0.023000
      8 C6           1.7920    -0.0010    -1.3440 ca         1 D01      -0.128800
      9 C7           0.5670    -0.0070    -2.1460 cc         1 D01      -0.026200
     10 C8          -0.4650    -0.0010    -1.2860 cd         1 D01      -0.308200
     11 S1          -2.1650    -0.0030    -1.7480 sy         1 D01       1.073800
     12 O1          -2.2070    -0.5290    -3.0660 o          1 D01      -0.579800
     13 O2          -2.8680    -0.5280    -0.6300 o          1 D01      -0.579800
     14 N2          -2.6450     1.5760    -1.8780 n3         1 D01      -0.535500
     15 C9          -2.5300     2.2900    -3.1580 c3         1 D01       0.219300
     16 C10         -3.9070     2.8500    -3.5320 c3         1 D01       0.010500
     17 N3          -4.4560     3.5640    -2.3700 n          1 D01      -0.141800
     18 C11         -4.8460     4.8500    -2.4760 c          1 D01       0.654300
     19 O3          -4.6210     5.4710    -3.4970 o          1 D01      -0.625100
     20 C12         -5.5430     5.5010    -1.3560 cc         1 D01      -0.052600
     21 C13         -5.6920     6.8300    -1.1090 cd         1 D01       0.015800
     22 C14         -6.4050     7.2570     0.0250 ca         1 D01      -0.357100
     23 C15         -6.9140     6.2240     0.8440 ca         1 D01       0.075900
     24 S2          -6.4000     4.7430     0.0120 ss         1 D01      -0.205500
     25 C16         -7.6310     6.4900     1.9940 ca         1 D01      -0.096000
     26 C17         -7.8400     7.8160     2.3370 ca         1 D01      -0.020000
     27 C18         -7.3200     8.8040     1.5110 ca         1 D01      -0.385300
     28 N4          -6.6450     8.5260     0.4270 na         1 D01       0.839600
     29 O4          -6.1500     9.5950    -0.3600 o          1 D01      -0.522000
     30 C19         -4.5650     2.8520    -1.0890 c3         1 D01       0.010500
     31 C20         -3.1920     2.2900    -0.7170 c3         1 D01       0.219300
     32 HN1         -0.5750     0.0040     0.8190 hn         1 D01       0.123700
     33 H2           2.0250     0.0010     2.0500 ha         1 D01       0.105000
     34 H3           4.4140     0.0000     1.4800 ha         1 D01       0.114000
     35 H5           3.4770    -0.0030    -2.6880 ha         1 D01       0.115000
     36 H7           0.5040    -0.0090    -3.2280 ha         1 D01       0.141000
     37 H91         -2.1960     1.6050    -3.9270 h1         1 D01       0.032450
     38 H92         -1.8230     3.1050    -3.0570 h1         1 D01       0.032450
     39 H101        -4.5690     2.0360    -3.8030 h1         1 D01       0.049700
     40 H102        -3.8060     3.5360    -4.3640 h1         1 D01       0.049700
     41 H13         -5.2620     7.5590    -1.7860 ha         1 D01       0.162000
     42 H16         -8.0180     5.6860     2.6080 ha         1 D01       0.131000
     43 H17         -8.3960     8.0760     3.2300 ha         1 D01       0.124000
     44 H18         -7.4810     9.8420     1.7750 h4         1 D01       0.169000
     45 H191        -4.8950     3.5400    -0.3190 h1         1 D01       0.049700
     46 H192        -5.2750     2.0390    -1.1850 h1         1 D01       0.049700
     47 H201        -2.5290     3.1030    -0.4450 h1         1 D01       0.032450
     48 H202        -3.2950     1.6040     0.1150 h1         1 D01       0.032450
@<TRIPOS>BOND
     1     1     2 1   
     2     1    10 1   
     3     1    32 1   
     4     2     3 ar  
     5     2     8 ar  
     6     3     4 ar  
     7     3    33 1   
     8     4     5 ar  
     9     4    34 1   
    10     5     6 1   
    11     5     7 ar  
    12     7     8 ar  
    13     7    35 1   
    14     8     9 1   
    15     9    10 2   
    16     9    36 1   
    17    10    11 1   
    18    11    12 2   
    19    11    13 2   
    20    11    14 1   
    21    14    15 1   
    22    14    31 1   
    23    15    16 1   
    24    15    37 1   
    25    15    38 1   
    26    16    17 1   
    27    16    39 1   
    28    16    40 1   
    29    17    18 1   
    30    17    30 1   
    31    18    19 2   
    32    18    20 1   
    33    20    21 2   
    34    20    24 1   
    35    21    22 1   
    36    21    41 1   
    37    22    23 ar  
    38    22    28 2   
    39    23    24 1   
    40    23    25 ar  
    41    25    26 ar  
    42    25    42 1   
    43    26    27 ar  
    44    26    43 1   
    45    27    28 1   
    46    27    44 1   
    47    28    29 1   
    48    30    31 1   
    49    30    45 1   
    50    30    46 1   
    51    31    47 1   
    52    31    48 1   
@<TRIPOS>SUBSTRUCTURE
     1 D01         1 TEMP              0 ****  ****    0 ROOT
