@<TRIPOS>MOLECULE
molecule
   30    31     1     0     0
SMALL
bcc


@<TRIPOS>ATOM
      1 CAA          0.0000     0.0000     0.0000 c3         1 D02       0.139700
      2 NAB         10.5230    -1.4760     6.3810 nz         1 D02      -0.783500
      3 OAC          1.4710     0.3440     2.1670 o          1 D02      -0.516000
      4 OAD         10.3210     1.1230     6.6690 o          1 D02      -0.422800
      5 OAE         11.4190     0.4280     4.8160 o          1 D02      -0.422800
      6 CAJ          4.2760    -0.0010     2.4270 cc         1 D02      -0.157600
      7 NAK          4.3770    -0.0010     0.2290 nd         1 D02      -0.245000
      8 NAL          5.5930    -0.0070     0.6520 nc         1 D02      -0.144800
      9 OAM          1.4510     0.0000     0.0000 os         1 D02      -0.402900
     10 CAN          2.0630     0.0000     1.2010 c          1 D02       0.584600
     11 CAO          3.5350    -0.0010     1.2770 cd         1 D02       0.255800
     12 CAP          7.9720     0.0020     2.3740 ca         1 D02       0.098400
     13 CAQ          6.5110     0.0090     4.2850 ca         1 D02       0.098400
     14 CAR          9.0710     0.0130     3.2180 ca         1 D02       0.216400
     15 CAS          7.6140     0.0140     5.1240 ca         1 D02       0.216400
     16 CAT          6.6890     0.0030     2.9060 ca         1 D02       0.109800
     17 CAU          8.8900     0.0190     4.5900 ca         1 D02      -0.353500
     18 NAV          5.5730    -0.0010     2.0540 na         1 D02       0.108300
     19 SAW         10.2860     0.0570     5.6650 sy         1 D02       1.048200
     20 HAA         -0.3610     0.9420     0.3940 h1         1 D02       0.058367
     21 HAAA        -0.3610    -0.8120     0.6190 h1         1 D02       0.058367
     22 HAAB        -0.3610    -0.1300    -1.0130 h1         1 D02       0.058367
     23 HNAB         9.8260    -1.6290     7.0830 hn         1 D02       0.489467
     24 HNAA        10.4510    -2.1870     5.6790 hn         1 D02       0.489467
     25 HAJ          3.8840     0.0410     3.4360 h4         1 D02       0.231000
     26 FAG          5.2530    -0.0160     4.8120 f          1 D02      -0.067400
     27 FAH         10.3320    -0.0140     2.6960 f          1 D02      -0.083400
     28 FAI          7.4410    -0.0050     6.4770 f          1 D02      -0.083400
     29 HAB3        11.4870    -1.5840     6.6270 hn         1 D02       0.489467
     30 FAF          8.1500    -0.0250     1.0210 f          1 D02      -0.067400
@<TRIPOS>BOND
     1     9     1 1
     2     1    20 1
     3     1    21 1
     4     1    22 1
     5     2    19 1
     6     2    23 1
     7     2    24 1
     8     3    10 2
     9    19     4 2
    10     5    19 2
    11    30    12 1
    12    26    13 1
    13    14    27 1
    14    15    28 1
    15    11     6 2
    16     6    18 1
    17     6    25 1
    18    11     7 1
    19     7     8 2
    20    18     8 1
    21     9    10 1
    22    10    11 1
    23    16    12 ar
    24    12    14 ar
    25    16    13 ar
    26    13    15 ar
    27    14    17 ar
    28    15    17 ar
    29    18    16 1
    30    17    19 1
    31    29     2 1
@<TRIPOS>SUBSTRUCTURE
     1 D02         1 TEMP              0 ****  ****    0 ROOT
