@<TRIPOS>MOLECULE
molecule
   78    81     1     0     0
SMALL
bcc


@<TRIPOS>ATOM
      1 O01          0.0000     0.0000     0.0000 o          1 D03      -0.611100
      2 C02          1.2170     0.0000     0.0000 c          1 D03       0.665300
      3 C03          1.9500     0.0000     1.2670 ce         1 D03      -0.251200
      4 C05          1.2770     0.0020     2.4350 cf         1 D03      -0.023200
      5 C07          2.0130     0.0020     3.7100 ca         1 D03      -0.080800
      6 C16          1.3180     0.0040     4.9230 ca         1 D03      -0.107000
      7 C14          2.0160     0.0040     6.1130 ca         1 D03      -0.131500
      8 C12          3.4000     0.0020     6.1080 ca         1 D03      -0.117000
      9 C10          4.0940     0.0020     4.9110 ca         1 D03      -0.131500
     10 C08          3.4120    -0.0050     3.7130 ca         1 D03      -0.107000
     11 N18          1.8900    -0.0070    -1.1680 ns         1 D03      -0.568900
     12 C20          1.1580    -0.0150    -2.4360 c3         1 D03       0.048700
     13 C22          0.7950     1.4210    -2.8230 c3         1 D03      -0.044100
     14 C25         -0.1680     1.9860    -1.8100 ca         1 D03      -0.072300
     15 C34         -1.5290     1.8330    -1.9890 ca         1 D03      -0.113500
     16 C32         -2.4110     2.3520    -1.0590 ca         1 D03      -0.119500
     17 C30         -1.9310     3.0240     0.0490 ca         1 D03      -0.123000
     18 C28         -0.5680     3.1760     0.2290 ca         1 D03      -0.119500
     19 C26          0.3130     2.6530    -0.6980 ca         1 D03      -0.113500
     20 C36          2.0210    -0.6220    -3.5120 c          1 D03       0.650100
     21 O37          3.1380    -1.0100    -3.2460 o          1 D03      -0.605100
     22 N38          1.5500    -0.7330    -4.7700 ns         1 D03      -0.580900
     23 C40          2.4260    -1.2200    -5.8390 c3         1 D03       0.114700
     24 C42          2.3330    -2.7450    -5.9170 c3         1 D03      -0.076400
     25 C45          3.4660    -3.2810    -6.7960 c3         1 D03      -0.183700
     26 C47          4.8080    -3.0130    -6.1510 c          1 D03       0.706500
     27 O48          5.3750    -1.9420    -6.1460 o          1 D03      -0.649500
     28 N49          5.2810    -4.1380    -5.5840 ns         1 D03      -0.584900
     29 C51          4.3470    -5.2560    -5.7600 c3         1 D03       0.091000
     30 C54          3.3910    -4.8220    -6.8970 c3         1 D03      -0.084400
     31 C57          1.9890    -0.6140    -7.1730 c3         1 D03       0.060100
     32 O58          0.7170    -1.1490    -7.5460 oh         1 D03      -0.579800
     33 C66          3.0050    -0.9480    -8.2350 c          1 D03       0.634100
     34 O67          2.6900    -1.6430    -9.1780 o          1 D03      -0.606100
     35 N68          4.2640    -0.4770    -8.1350 ns         1 D03      -0.561900
     36 C70          5.2510    -0.8020    -9.1670 c3         1 D03       0.167300
     37 C73          6.5690    -0.1570    -8.8220 ca         1 D03      -0.118300
     38 C74          6.8520     1.1190    -9.2720 ca         1 D03      -0.102000
     39 C76          7.4910    -0.8380    -8.0500 ca         1 D03      -0.102000
     40 C78          8.7000    -0.2470    -7.7340 ca         1 D03      -0.135000
     41 C80          8.9860     1.0260    -8.1890 ca         1 D03      -0.120000
     42 C82          8.0620     1.7110    -8.9560 ca         1 D03      -0.135000
     43 H1           3.0330    -0.0010     1.2660 ha         1 D03       0.131000
     44 H2           0.1940     0.0030     2.4360 ha         1 D03       0.159000
     45 H3           0.2350     0.0050     4.9280 ha         1 D03       0.135000
     46 H4           1.4790     0.0050     7.0540 ha         1 D03       0.132000
     47 H5           3.9420     0.0060     7.0460 ha         1 D03       0.131000
     48 H6           5.1770    -0.0010     4.9160 ha         1 D03       0.132000
     49 H7           3.9570    -0.0050     2.7770 ha         1 D03       0.135000
     50 H8           2.8910    -0.0350    -1.1680 hn         1 D03       0.335500
     51 H9           0.2520    -0.5990    -2.3260 h1         1 D03       0.097700
     52 H10          1.6920     2.0270    -2.8450 hc         1 D03       0.052700
     53 H11          0.3310     1.4250    -3.8020 hc         1 D03       0.052700
     54 H12         -1.9060     1.3070    -2.8570 ha         1 D03       0.123000
     55 H13         -3.4790     2.2320    -1.2000 ha         1 D03       0.126000
     56 H14         -2.6220     3.4320     0.7770 ha         1 D03       0.125000
     57 H15         -0.1920     3.7010     1.0990 ha         1 D03       0.126000
     58 H16          1.3810     2.7720    -0.5580 ha         1 D03       0.123000
     59 H17          0.5900    -0.5270    -4.9650 hn         1 D03       0.322500
     60 H18          3.4490    -0.9310    -5.6280 h1         1 D03       0.113700
     61 H19          2.4200    -3.1640    -4.9220 hc         1 D03       0.067700
     62 H20          1.3790    -3.0280    -6.3450 hc         1 D03       0.067700
     63 H21          3.4280    -2.8380    -7.7840 hc         1 D03       0.114700
     64 H22          6.0960    -4.1580    -5.0030 hn         1 D03       0.335500
     65 H23          3.7890    -5.4230    -4.8460 h1         1 D03       0.044700
     66 H24          4.8860    -6.1500    -6.0460 h1         1 D03       0.044700
     67 H25          2.3830    -5.1720    -6.7080 hc         1 D03       0.063200
     68 H26          3.7550    -5.1640    -7.8580 hc         1 D03       0.063200
     69 H27          1.9120     0.4620    -7.0730 h1         1 D03       0.050700
     70 H28          0.2300    -0.4980    -8.0250 ho         1 D03       0.411000
     71 H29          4.5080     0.1410    -7.3870 hn         1 D03       0.330500
     72 H30          5.3780    -1.8760    -9.2200 h1         1 D03       0.054700
     73 H31          4.9080    -0.4310   -10.1250 h1         1 D03       0.054700
     74 H32          6.1270     1.6540    -9.8730 ha         1 D03       0.137500
     75 H33          7.2670    -1.8360    -7.6940 ha         1 D03       0.137500
     76 H34          9.4230    -0.7820    -7.1320 ha         1 D03       0.130000
     77 H35          9.9330     1.4900    -7.9410 ha         1 D03       0.128000
     78 H36          8.2850     2.7100    -9.3100 ha         1 D03       0.130000
@<TRIPOS>BOND
     1    29    30 1
     2    29    28 1
     3    30    25 1
     4    28    26 1
     5     8     7 ar
     6     8     9 ar
     7     7     6 ar
     8     9    10 ar
     9     6     5 ar
    10    32    31 1
    11    35    36 1
    12    35    33 1
    13    26    25 1
    14    26    27 2
    15    36    37 1
    16    25    24 1
    17    38    37 ar
    18    38    42 ar
    19    10     5 ar
    20     5     4 1
    21    24    23 1
    22    21    20 2
    23    37    39 ar
    24    23    31 1
    25    23    22 1
    26    42    41 ar
    27    31    33 1
    28    33    34 2
    29     4     3 2
    30    39    40 ar
    31    41    40 ar
    32    20    22 1
    33    20    12 1
    34     3     2 1
    35     2     1 2
    36     2    11 1
    37    11    12 1
    38    12    13 1
    39    13    14 1
    40    14    19 ar
    41    14    15 ar
    42    19    18 ar
    43    15    16 ar
    44    18    17 ar
    45    16    17 ar
    46     3    43 1
    47     4    44 1
    48     6    45 1
    49     7    46 1
    50     8    47 1
    51     9    48 1
    52    10    49 1
    53    11    50 1
    54    12    51 1
    55    13    52 1
    56    13    53 1
    57    15    54 1
    58    16    55 1
    59    17    56 1
    60    18    57 1
    61    19    58 1
    62    22    59 1
    63    23    60 1
    64    24    61 1
    65    24    62 1
    66    25    63 1
    67    28    64 1
    68    29    65 1
    69    29    66 1
    70    30    67 1
    71    30    68 1
    72    31    69 1
    73    32    70 1
    74    35    71 1
    75    36    72 1
    76    36    73 1
    77    38    74 1
    78    39    75 1
    79    40    76 1
    80    41    77 1
    81    42    78 1
@<TRIPOS>SUBSTRUCTURE
     1 D03         1 TEMP              0 ****  ****    0 ROOT
