@<TRIPOS>MOLECULE
D03
   78    83     1     0     0
SMALL
bcc


@<TRIPOS>ATOM
      1 O01          0.0000     0.0000     0.0000 o          1 D03      -0.437000
      2 C02          1.2170     0.0000     0.0000 c3         1 D03       0.349000
      3 C03          1.9500     0.0000     1.2670 c2         1 D03      -0.152000
      4 C05          1.2770     0.0020     2.4350 c2         1 D03       0.012000
      5 C07          2.0130     0.0020     3.7100 c3         1 D03       0.001000
      6 C16          1.3180     0.0040     4.9230 c2         1 D03      -0.156500
      7 C14          2.0160     0.0040     6.1130 c2         1 D03      -0.066500
      8 C12          3.4000     0.0020     6.1080 c2         1 D03      -0.138000
      9 C10          4.0940     0.0020     4.9110 c2         1 D03      -0.066500
     10 C08          3.4120    -0.0050     3.7130 c2         1 D03      -0.156500
     11 N18          1.8900    -0.0070    -1.1680 n7         1 D03      -0.012000
     12 C20          1.1580    -0.0150    -2.4360 c3         1 D03      -0.074000
     13 C22          0.7950     1.4210    -2.8230 c3         1 D03      -0.061000
     14 C25         -0.1680     1.9860    -1.8100 ca         1 D03      -0.082000
     15 C34         -1.5290     1.8330    -1.9890 ca         1 D03      -0.088500
     16 C32         -2.4110     2.3520    -1.0590 ca         1 D03      -0.088500
     17 C30         -1.9310     3.0240     0.0490 ca         1 D03      -0.094000
     18 C28         -0.5680     3.1760     0.2290 ca         1 D03      -0.088500
     19 C26          0.3130     2.6530    -0.6980 ca         1 D03      -0.088500
     20 C36          2.0210    -0.6220    -3.5120 c2         1 D03       0.208000
     21 O37          3.1380    -1.0100    -3.2460 o          1 D03      -0.408000
     22 N38          1.5500    -0.7330    -4.7700 ns         1 D03       0.013000
     23 C40          2.4260    -1.2200    -5.8390 c3         1 D03      -0.086000
     24 C42          2.3330    -2.7450    -5.9170 c3         1 D03      -0.099000
     25 C45          3.4660    -3.2810    -6.7960 c3         1 D03      -0.181000
     26 C47          4.8080    -3.0130    -6.1510 c2         1 D03       0.239000
     27 O48          5.3750    -1.9420    -6.1460 o          1 D03      -0.418000
     28 N49          5.2810    -4.1380    -5.5840 ns         1 D03      -0.002000
     29 C51          4.3470    -5.2560    -5.7600 c3         1 D03      -0.080000
     30 C54          3.3910    -4.8220    -6.8970 c3         1 D03      -0.096000
     31 C57          1.9890    -0.6140    -7.1730 c3         1 D03       0.050000
     32 O58          0.7170    -1.1490    -7.5460 oh         1 D03      -0.288000
     33 C66          3.0050    -0.9480    -8.2350 c2         1 D03       0.187000
     34 O67          2.6900    -1.6430    -9.1780 o          1 D03      -0.408000
     35 N68          4.2640    -0.4770    -8.1350 ns         1 D03       0.028000
     36 C70          5.2510    -0.8020    -9.1670 c3         1 D03      -0.009000
     37 C73          6.5690    -0.1570    -8.8220 ca         1 D03      -0.119000
     38 C74          6.8520     1.1190    -9.2720 ca         1 D03      -0.076000
     39 C76          7.4910    -0.8380    -8.0500 ca         1 D03      -0.076000
     40 C78          8.7000    -0.2470    -7.7340 ca         1 D03      -0.106000
     41 C80          8.9860     1.0260    -8.1890 ca         1 D03      -0.093000
     42 C82          8.0620     1.7110    -8.9560 ca         1 D03      -0.106000
     43 H1           1.4820    -0.8740     0.8310 DU         1 D03       0.026000
     44 H2           1.7430    -0.8730     2.8730 DU         1 D03       0.092000
     45 H3           0.2350     0.0050     4.9280 ha         1 D03       0.120000
     46 H4           1.4790     0.0050     7.0540 ha         1 D03       0.102500
     47 H5           3.9420     0.0060     7.0460 ha         1 D03       0.105000
     48 H6           5.1770    -0.0010     4.9160 ha         1 D03       0.102500
     49 H7           3.9570    -0.0050     2.7770 ha         1 D03       0.120000
     50 H8           2.8910    -0.0280    -1.1680 hn         1 D03       0.120000
     51 H9           0.2520    -0.5990    -2.3260 h1         1 D03       0.108000
     52 H10          1.6920     2.0270    -2.8450 hc         1 D03       0.061500
     53 H11          0.3310     1.4250    -3.8020 hc         1 D03       0.061500
     54 H12         -1.9060     1.3070    -2.8570 ha         1 D03       0.099500
     55 H13         -3.4790     2.2320    -1.2000 ha         1 D03       0.099500
     56 H14         -2.6220     3.4320     0.7770 ha         1 D03       0.099000
     57 H15         -0.1920     3.7010     1.0990 ha         1 D03       0.099500
     58 H16          1.3810     2.7720    -0.5580 ha         1 D03       0.099500
     59 H17          0.5900    -0.5270    -4.9650 hn         1 D03       0.098000
     60 H18          3.4490    -0.9310    -5.6280 h1         1 D03       0.135000
     61 H19          1.3790    -3.0280    -6.3450 hc         1 D03       0.076500
     62 H20          2.4200    -3.1640    -4.9220 hc         1 D03       0.076500
     63 H21          3.4280    -2.8380    -7.7840 hc         1 D03       0.143000
     64 H22          6.0960    -4.1580    -5.0030 hn         1 D03       0.106000
     65 H23          3.7890    -5.4230    -4.8460 h1         1 D03       0.055000
     66 H24          4.8860    -6.1500    -6.0460 h1         1 D03       0.055000
     67 H25          2.3830    -5.1720    -6.7080 hc         1 D03       0.071500
     68 H26          3.7550    -5.1640    -7.8580 hc         1 D03       0.071500
     69 H27          1.9120     0.4620    -7.0730 h1         1 D03       0.051000
     70 H28          0.2300    -0.4980    -8.0250 ho         1 D03       0.196000
     71 H29          4.5080     0.1410    -7.3870 hn         1 D03       0.106000
     72 H30          5.3780    -1.8760    -9.2200 h1         1 D03       0.065500
     73 H31          4.9080    -0.4310   -10.1250 h1         1 D03       0.065500
     74 H32          6.1270     1.6540    -9.8730 ha         1 D03       0.111000
     75 H33          7.2670    -1.8360    -7.6940 ha         1 D03       0.111000
     76 H34          9.4230    -0.7820    -7.1320 ha         1 D03       0.102500
     77 H35          9.9330     1.4900    -7.9410 ha         1 D03       0.101000
     78 H36          8.2850     2.7100    -9.3100 ha         1 D03       0.102500
@<TRIPOS>BOND
     1     1     2 1   
     2     2     3 1   
     3     2    11 1   
     4     2    43 1   
     5     3     4 1   
     6     3    43 1   
     7     4     5 1   
     8     4    44 1   
     9     5     6 1   
    10     5    10 1   
    11     5    44 1   
    12     6     7 1   
    13     6    45 1   
    14     7     8 1   
    15     7    46 1   
    16     8     9 1   
    17     8    47 1   
    18     9    10 1   
    19     9    48 1   
    20    10    49 1   
    21    11    12 1   
    22    11    50 1   
    23    12    13 1   
    24    12    20 1   
    25    12    51 1   
    26    13    14 1   
    27    13    52 1   
    28    13    53 1   
    29    14    15 1   
    30    14    19 1   
    31    15    16 1   
    32    15    54 1   
    33    16    17 1   
    34    16    55 1   
    35    17    18 1   
    36    17    56 1   
    37    18    19 1   
    38    18    57 1   
    39    19    58 1   
    40    20    21 1   
    41    20    22 1   
    42    22    23 1   
    43    22    59 1   
    44    23    24 1   
    45    23    31 1   
    46    23    60 1   
    47    24    25 1   
    48    24    61 1   
    49    24    62 1   
    50    25    26 1   
    51    25    30 1   
    52    25    63 1   
    53    26    27 1   
    54    26    28 1   
    55    28    29 1   
    56    28    64 1   
    57    29    30 1   
    58    29    65 1   
    59    29    66 1   
    60    30    67 1   
    61    30    68 1   
    62    31    32 1   
    63    31    33 1   
    64    31    69 1   
    65    32    70 1   
    66    33    34 1   
    67    33    35 1   
    68    35    36 1   
    69    35    71 1   
    70    36    37 1   
    71    36    72 1   
    72    36    73 1   
    73    37    38 1   
    74    37    39 1   
    75    38    42 1   
    76    38    74 1   
    77    39    40 1   
    78    39    75 1   
    79    40    41 1   
    80    40    76 1   
    81    41    42 1   
    82    41    77 1   
    83    42    78 1   
@<TRIPOS>SUBSTRUCTURE
     1 D03         1 TEMP              0 ****  ****    0 ROOT
