@<TRIPOS>MOLECULE
D04
   40    39     1     0     0
SMALL
bcc


@<TRIPOS>ATOM
      1 NAA         0.0220   -0.2900    0.3390 n4        1 D04     -0.508000
      2 OAB         2.0230   -0.0290    1.8740 o         1 D04     -0.835000
      3 OAC         2.3360   -1.2500   -0.1660 o         1 D04     -0.835000
      4 CAH         3.8360    5.2690   -3.3040 cx        1 D04     -0.111000
      5 CAI         6.2710    8.8120   -8.4630 c1        1 D04      0.123000
      6 CAJ         7.2660    9.1010   -9.2530 c2        1 D04     -0.527000
      7 CAK         3.3730    9.1260   -6.6290 c3        1 D04     -0.160000
      8 CAL         5.1840    5.9550   -3.2570 cx        1 D04     -0.147000
      9 CAM         3.5430    8.3250   -5.4640 c1        1 D04      0.002000
     10 NAN         3.3220    7.2630   -2.0700 n2        1 D04      0.015000
     11 NAO         2.9120    6.3200   -1.4140 n2        1 D04      0.110000
     12 CAP         1.8600    3.7410   -0.3710 ca        1 D04     -0.020500
     13 CAQ         3.1610    2.6020   -2.0960 ca        1 D04     -0.020500
     14 CAR         1.5720    2.4950    0.1930 ca        1 D04      0.230500
     15 CAS         2.8440    1.3680   -1.5070 ca        1 D04      0.230500
     16 CAT         3.9480    6.8410   -3.3670 cx        1 D04      0.059000
     17 CAU         2.7390    3.8560   -1.5190 ca        1 D04      0.246000
     18 CAV         2.0910    1.2550   -0.2990 ca        1 D04     -1.092000
     19 CAW         3.7130    7.6370   -4.4970 c1        1 D04     -0.233000
     20 NAX         3.1600    5.0520   -2.0110 nh        1 D04     -0.213000
     21 SAY         1.9240   -0.1230    0.5060 s6        1 D04      2.842000
     22 HNAA       -0.3940    0.5030   -0.1410 hn        1 D04      0.252333
     23 HNAB       -0.4050   -0.3500    1.2630 hn        1 D04      0.252333
     24 HAH         3.5180    4.6180   -4.1340 h1        1 D04      0.195000
     25 HAI         6.4630    6.9670   -6.7620 ha        1 D04      0.003750
     26 HAIA        5.5720    6.8070   -9.4550 ha        1 D04      0.003750
     27 HAJ         5.8150    5.8750   -4.1670 hc        1 D04      0.156000
     28 HAJA        6.5350    6.4780   -6.2970 ha        1 D04      0.003750
     29 HAK         4.2640    9.0080   -7.3120 hc        1 D04      0.126333
     30 HAKA        5.6230    6.5900   -8.8130 ha        1 D04      0.003750
     31 HAL         7.8190   10.0550   -9.1880 ha        1 D04      0.197000
     32 HALA        7.6510    8.4460  -10.0500 ha        1 D04      0.197000
     33 HAM         3.2770   10.2070   -6.3480 hc        1 D04      0.126333
     34 HAMA        2.4490    8.8210   -7.1870 hc        1 D04      0.126333
     35 HAW         5.7890    5.9620   -2.3320 hc        1 D04      0.156000
     36 FAE         3.9040    2.5730   -3.2290 f         1 D04     -0.050500
     37 FAF         0.7260    2.4510    1.2480 f         1 D04     -0.054000
     38 FAG         3.2930    0.2490   -2.1070 f         1 D04     -0.054000
     39 HAA3       -0.2220   -1.1350   -0.1760 hn        1 D04      0.252333
     40 FAD         1.2740    4.8240    0.1830 f         1 D04     -0.050500
@<TRIPOS>BOND
     1    1   21 1   
     2    1   22 1   
     3    1   23 1   
     4    1   39 1   
     5    2   21 1   
     6    3   21 1   
     7    4    8 1   
     8    4   16 1   
     9    4   20 1   
    10    4   24 1   
    11    5    6 1   
    12    6   31 1   
    13    6   32 1   
    14    7    9 1   
    15    7   29 1   
    16    7   33 1   
    17    7   34 1   
    18    8   16 1   
    19    8   27 1   
    20    8   35 1   
    21    9   19 1   
    22   10   11 1   
    23   10   16 1   
    24   11   20 1   
    25   12   14 1   
    26   12   17 1   
    27   12   40 1   
    28   13   15 1   
    29   13   17 1   
    30   13   36 1   
    31   14   18 1   
    32   14   37 1   
    33   15   18 1   
    34   15   38 1   
    35   16   19 1   
    36   17   20 1   
    37   18   21 1   
    38   25   28 1   
    39   26   30 1   
@<TRIPOS>SUBSTRUCTURE
     1 D04         1 TEMP              0 ****  ****    0 ROOT
