@<TRIPOS>MOLECULE
molecule
   40    42     1     0     0
SMALL
bcc


@<TRIPOS>ATOM
      1 NAA          0.0000     0.0000     0.0000 nz         1 D04      -0.811500
      2 OAB          2.0570     0.0000     1.3630 o          1 D04      -0.469800
      3 OAC          2.0580    -0.9980    -0.9290 o          1 D04      -0.469800
      4 CAH          3.6290     5.4630    -3.5890 cc         1 D04      -0.288600
      5 CAI          5.3540     7.6220    -7.6420 c3         1 D04      -0.082400
      6 CAJ          6.2070     8.1100    -6.4690 c3         1 D04      -0.078900
      7 CAK          3.8740     7.8390    -7.3210 c3         1 D04      -0.078900
      8 CAL          5.8380     7.3240    -5.2090 c3         1 D04      -0.075900
      9 CAM          3.5050     7.0530    -6.0600 c3         1 D04      -0.075900
     10 NAN          3.9730     7.2300    -2.4000 nd         1 D04      -0.299000
     11 NAO          3.6240     6.2810    -1.6060 nc         1 D04      -0.178800
     12 CAP          2.7910     3.8420    -0.3620 ca         1 D04       0.097400
     13 CAQ          2.7860     2.8840    -2.5670 ca         1 D04       0.097400
     14 CAR          2.3810     2.6270     0.1640 ca         1 D04       0.222900
     15 CAS          2.3820     1.6700    -2.0360 ca         1 D04       0.222900
     16 CAT          3.9940     6.7650    -3.6540 cd         1 D04       0.337600
     17 CAU          2.9920     3.9730    -1.7300 ca         1 D04       0.107800
     18 CAV          2.1780     1.5430    -0.6730 ca         1 D04      -0.454500
     19 CAW          4.3580     7.5410    -4.8880 c3         1 D04      -0.093000
     20 NAX          3.4000     5.2020    -2.2720 na         1 D04       0.169300
     21 SAY          1.6560     0.0000     0.0000 sy         1 D04       1.240200
     22 HNAA        -0.4810    -0.6790    -0.5560 hn         1 D04       0.486800
     23 HNAB        -0.4010     0.2260     0.8890 hn         1 D04       0.486800
     24 HAH          3.5330     4.7710    -4.4170 h4         1 D04       0.216000
     25 HAI          5.5520     6.5740    -7.8350 hc         1 D04       0.047700
     26 HAIA         5.6160     8.2090    -8.5140 hc         1 D04       0.047700
     27 HAJ          6.1060     9.1780    -6.3180 hc         1 D04       0.050450
     28 HAJA         7.2430     7.8970    -6.7050 hc         1 D04       0.050450
     29 HAK          3.6280     8.8900    -7.2320 hc         1 D04       0.050450
     30 HAKA         3.3070     7.4040    -8.1350 hc         1 D04       0.050450
     31 HAL          6.0360     6.2710    -5.3660 hc         1 D04       0.043700
     32 HALA         6.4440     7.6710    -4.3810 hc         1 D04       0.043700
     33 HAM          2.4700     7.2710    -5.8280 hc         1 D04       0.043700
     34 HAMA         3.6340     5.9890    -6.2150 hc         1 D04       0.043700
     35 HAW          4.1960     8.6050    -4.7660 hc         1 D04       0.090700
     36 FAE          2.9850     3.0060    -3.8980 f          1 D04      -0.064900
     37 FAF          2.1810     2.5010     1.4940 f          1 D04      -0.075400
     38 FAG          2.1870     0.6080    -2.8480 f          1 D04      -0.075400
     39 HAA3         0.4370     0.7580    -0.4860 hn         1 D04       0.486800
     40 FAD          2.9910     4.8990     0.4560 f          1 D04      -0.064900
@<TRIPOS>BOND
     1     1    21 1
     2     1    22 1
     3     1    23 1
     4    21     2 2
     5     3    21 2
     6    40    12 1
     7    36    13 1
     8    14    37 1
     9    38    15 1
    10    16     4 2
    11     4    20 1
    12     4    24 1
    13     6     5 1
    14     5     7 1
    15     5    25 1
    16     5    26 1
    17     6     8 1
    18     6    27 1
    19     6    28 1
    20     9     7 1
    21     7    29 1
    22     7    30 1
    23     8    19 1
    24     8    31 1
    25     8    32 1
    26    19     9 1
    27     9    33 1
    28     9    34 1
    29    16    10 1
    30    10    11 2
    31    20    11 1
    32    17    12 ar
    33    12    14 ar
    34    17    13 ar
    35    13    15 ar
    36    14    18 ar
    37    15    18 ar
    38    19    16 1
    39    20    17 1
    40    18    21 1
    41    19    35 1
    42    39     1 1
@<TRIPOS>SUBSTRUCTURE
     1 D04         1 TEMP              0 ****  ****    0 ROOT
