@<TRIPOS>MOLECULE
D05
   45    48     1     0     0
SMALL
bcc


@<TRIPOS>ATOM
      1 N8          1.7390    0.2180    0.1950 n         1 D05     -0.486400
      2 C7          2.8260   -0.4920    0.6990 cc        1 D05      0.514900
      3 N6          3.0170   -0.8090    1.9830 nd        1 D05     -0.618100
      4 C5          2.0140   -0.3670    2.8360 cd        1 D05      0.202100
      5 C4          0.8550    0.3670    2.4190 cc        1 D05     -0.374900
      6 C9          0.6910    0.6990    1.0260 c         1 D05      0.749100
      7 N1          1.8930   -0.5160    4.2290 na        1 D05      0.156300
      8 N2          0.7490    0.0540    4.6870 nd        1 D05     -0.484800
      9 C3          0.0970    0.6040    3.6290 cc        1 D05      0.405600
     10 O9         -0.2380    1.3340    0.4990 o         1 D05     -0.622500
     11 C11         2.8030   -1.2240    5.0590 ca        1 D05      0.031800
     12 C16         2.4060   -2.4110    5.7180 ca        1 D05      0.048900
     13 C12         4.1220   -0.7530    5.2480 ca        1 D05      0.048900
     14 C15         3.3040   -3.1060    6.5310 ca        1 D05     -0.125000
     15 C13         5.0210   -1.4580    6.0520 ca        1 D05     -0.125000
     16 C14         4.6060   -2.6290    6.6900 ca        1 D05      0.038400
     17 CL14        5.6970   -3.4790    7.6710 cl        1 D05     -0.068400
     18 C1         -1.1980    1.3230    3.6900 c3        1 D05     -0.119700
     19 C2         -1.2230    2.3970    4.7500 c3        1 D05     -0.089100
     20 C20         3.8590   -0.9730   -0.3150 c3        1 D05     -0.075400
     21 CL16        0.8380   -3.0250    5.5360 cl        1 D05     -0.046900
     22 CL12        4.6510    0.6790    4.5110 cl        1 D05     -0.046900
     23 C21         4.2440    0.0980   -1.2740 ca        1 D05     -0.105300
     24 C22         3.6050    0.1800   -2.5160 ca        1 D05     -0.141000
     25 C23         3.9820    1.1740   -3.4260 ca        1 D05      0.117100
     26 C24         5.0040    2.0880   -3.0820 ca        1 D05      0.052100
     27 C25         5.6380    1.9990   -1.8410 ca        1 D05     -0.167000
     28 C26         5.2570    1.0040   -0.9430 ca        1 D05     -0.111000
     29 O23         3.3260    1.2060   -4.6320 oh        1 D05     -0.490100
     30 O24         5.3160    3.0350   -4.0340 oh        1 D05     -0.512100
     31 HN8         1.7110    0.4370   -0.7780 hn        1 D05      0.344500
     32 H15         2.9820   -4.0290    7.0410 ha        1 D05      0.169500
     33 H13         6.0490   -1.0840    6.1850 ha        1 D05      0.169500
     34 H11        -2.0160    0.5760    3.8880 hc        1 D05      0.071200
     35 H12        -1.3890    1.7750    2.6770 hc        1 D05      0.071200
     36 H21        -0.4060    3.1390    4.5800 hc        1 D05      0.040367
     37 H22A       -2.2020    2.9340    4.7160 hc        1 D05      0.040367
     38 H23A       -1.0950    1.9570    5.7680 hc        1 D05      0.040367
     39 H201        4.7730   -1.3430    0.2270 hc        1 D05      0.089200
     40 H202        3.4120   -1.8500   -0.8590 hc        1 D05      0.089200
     41 H22         2.8160   -0.5320   -2.8010 ha        1 D05      0.155000
     42 H25         6.4330    2.7110   -1.5760 ha        1 D05      0.141000
     43 H26         5.7580    0.9330    0.0340 ha        1 D05      0.146000
     44 H23         3.6730    1.9540   -5.1440 ho        1 D05      0.441000
     45 H24         5.9980    3.6140   -3.6660 ho        1 D05      0.433000
@<TRIPOS>BOND
     1    1    2 1
     2    1    6 1
     3    1   31 1
     4    2    3 2
     5    2   20 1
     6    3    4 1
     7    4    5 2
     8    4    7 1
     9    5    6 1
    10    5    9 1
    11    6   10 2
    12    7    8 1
    13    7   11 1
    14    8    9 2
    15    9   18 1
    16   11   12 ar
    17   11   13 ar
    18   12   14 ar
    19   12   21 1
    20   13   15 ar
    21   13   22 1
    22   14   16 ar
    23   14   32 1
    24   15   16 ar
    25   15   33 1
    26   16   17 1
    27   18   19 1
    28   18   34 1
    29   18   35 1
    30   19   36 1
    31   19   37 1
    32   19   38 1
    33   20   23 1
    34   20   39 1
    35   20   40 1
    36   23   24 ar
    37   23   28 ar
    38   24   25 ar
    39   24   41 1
    40   25   26 ar
    41   25   29 1
    42   26   27 ar
    43   26   30 1
    44   27   28 ar
    45   27   42 1
    46   28   43 1
    47   29   44 1
    48   30   45 1
@<TRIPOS>SUBSTRUCTURE
     1 D05         1 TEMP              0 ****  ****    0 ROOT
