@<TRIPOS>MOLECULE
molecule
   21    22     1     0     0
SMALL
bcc


@<TRIPOS>ATOM
      1 C2           0.0000     0.0000     0.0000 c3         1 D07       0.073600
      2 C3           3.3460     0.0000     1.3790 cc         1 D07       0.403800
      3 C5           4.8390    -0.0020    -0.7530 ca         1 D07       0.804200
      4 C4           3.5720     0.0040    -2.6840 ca         1 D07       0.858000
      5 N2           2.4340     0.0070    -2.0230 nb         1 D07      -0.802000
      6 C1           2.4220     0.0060    -0.6910 ca         1 D07       0.545800
      7 N3           4.7480    -0.0000    -2.0780 nb         1 D07      -0.839000
      8 C6           7.2980    -0.0120    -0.9280 c3         1 D07       0.227100
      9 C            3.6480     0.0000     0.0000 ca         1 D07      -0.559500
     10 N1           2.0510    -0.0000     1.5180 nd         1 D07      -0.504100
     11 N            1.4420     0.0000     0.2570 na         1 D07      -0.022800
     12 H1          -0.2670     0.8860    -0.5630 h1         1 D07       0.058367
     13 H2          -0.5340    -0.0040     0.9420 h1         1 D07       0.058367
     14 H3          -0.2650    -0.8830    -0.5690 h1         1 D07       0.058367
     15 H4           4.0690    -0.0000     2.1850 h4         1 D07       0.053800
     16 H5           6.1250     0.0010     0.8710 hn         1 D07       0.450800
     17 H6           8.1580    -0.0180    -0.2700 h1         1 D07       0.046033
     18 H7           7.3260     0.8730    -1.5510 h1         1 D07       0.046033
     19 H8           7.3170    -0.8960    -1.5550 h1         1 D07       0.046033
     20 N4           6.0710    -0.0080    -0.1280 nu         1 D07      -0.896900
     21 Cl           3.5300     0.0070    -4.4200 cl         1 D07      -0.107000
@<TRIPOS>BOND
     1     1    11 1
     2    11    10 1
     3    11     6 1
     4    10     2 2
     5     6     5 ar
     6     6     9 ar
     7     5     4 ar
     8     2     9 1
     9     9     3 ar
    10     4    21 1
    11     4     7 ar
    12     3     7 ar
    13     3    20 1
    14    20     8 1
    15     1    12 1
    16     1    13 1
    17     1    14 1
    18     2    15 1
    19    20    16 1
    20     8    17 1
    21     8    18 1
    22     8    19 1
@<TRIPOS>SUBSTRUCTURE
     1 D07         1 TEMP              0 ****  ****    0 ROOT
