@<TRIPOS>MOLECULE
D08
   59    61     1     0     0
SMALL
bcc


@<TRIPOS>ATOM
      1 C10          0.0000     0.0000     0.0000 ca         1 D08      -0.111900
      2 C13         -0.7390    -0.0010    -1.2770 ce         1 D08       0.362900
      3 C15         -2.4340     0.4050    -2.9130 c3         1 D08       0.161100
      4 C20         -4.0880    -0.8940    -8.0360 c3         1 D08       0.200400
      5 C21         -6.8630    -0.7900    -4.5270 c3         1 D08       0.200400
      6 C01          1.2830     0.0020     4.7790 c3         1 D08       0.241700
      7 C02          1.3860     0.0010     2.4040 ca         1 D08       0.128100
      8 C03          2.0850     0.0000     1.1980 ca         1 D08       0.118100
      9 O02          3.4450    -0.0000     1.2030 os         1 D08      -0.282900
     10 C04          4.0970    -0.1240    -0.0630 c3         1 D08       0.157100
     11 C05          5.5180    -0.6960     0.1150 c3         1 D08      -0.042900
     12 C06          6.4160     0.0320    -0.9010 c3         1 D08      -0.021900
     13 C07          5.5080     1.0210    -1.6620 c3         1 D08      -0.021900
     14 C08          4.3220     1.2720    -0.6960 c3         1 D08      -0.042900
     15 C09          1.3970     0.0000     0.0000 ca         1 D08      -0.150000
     16 C11         -0.6950     0.0060     1.2120 ca         1 D08      -0.087000
     17 C12         -0.0020     0.0060     2.4030 ca         1 D08      -0.183000
     18 C14         -2.2480     0.0060    -1.4300 c3         1 D08      -0.125700
     19 C16         -3.6020    -0.3570    -3.5430 c3         1 D08      -0.111400
     20 O03         -3.0490     0.9350    -5.4390 o          1 D08      -0.639100
     21 N01         -4.7590    -0.4470    -5.7280 n          1 D08      -0.127800
     22 O04         -1.1780    -0.0070    -3.4890 os         1 D08      -0.139300
     23 N02         -0.2130     0.0000    -2.4560 n2         1 D08      -0.354200
     24 C18         -5.6460    -1.4670    -5.1620 c3         1 D08       0.034000
     25 C19         -4.9340    -0.0130    -7.1150 c3         1 D08       0.034000
     26 O05         -4.5780    -2.2350    -7.9950 oh         1 D08      -0.597300
     27 O06         -7.6310    -0.1420    -5.5420 oh         1 D08      -0.597300
     28 H30         -2.5660     1.4760    -3.0080 h1         1 D08       0.048700
     29 H25         -4.1470    -0.5180    -9.0500 h1         1 D08      -0.005050
     30 H24         -3.0560    -0.8760    -7.7040 h1         1 D08      -0.005050
     31 H27         -6.5310    -0.0560    -3.8020 h1         1 D08      -0.005050
     32 H26         -7.4740    -1.5350    -4.0320 h1         1 D08      -0.005050
     33 H01          0.6560    -0.8810     4.8030 h1         1 D08      -0.002967
     34 H02          1.9440    -0.0020     5.6380 h1         1 D08      -0.002967
     35 H03          0.6610     0.8880     4.8070 h1         1 D08      -0.002967
     36 H04          3.5210    -0.7510    -0.7310 h1         1 D08       0.029700
     37 H05          5.8700    -0.5060     1.1220 hc         1 D08       0.026700
     38 H06          5.5170    -1.7600    -0.0880 hc         1 D08       0.026700
     39 H08          6.8460    -0.6830    -1.5920 hc         1 D08       0.015200
     40 H07          7.1990     0.5720    -0.3820 hc         1 D08       0.015200
     41 H10          6.0380     1.9450    -1.8570 hc         1 D08       0.015200
     42 H09          5.1560     0.5760    -2.5850 hc         1 D08       0.015200
     43 H12          4.5930     1.9960     0.0620 hc         1 D08       0.026700
     44 H11          3.4430     1.5890    -1.2440 hc         1 D08       0.026700
     45 H13          1.9400    -0.0010    -0.9380 ha         1 D08       0.149000
     46 H14         -1.7780     0.0110     1.2150 ha         1 D08       0.105000
     47 H15         -0.5430     0.0110     3.3420 ha         1 D08       0.122000
     48 H18         -2.6950     0.7450    -0.7760 hc         1 D08       0.036200
     49 H19         -2.6550    -0.9800    -1.2440 hc         1 D08       0.036200
     50 H17         -3.3940    -1.4190    -3.5210 hc         1 D08       0.039200
     51 H16         -4.5080    -0.1550    -2.9840 hc         1 D08       0.039200
     52 H22         -5.1120    -2.0310    -4.4060 h1         1 D08       0.044200
     53 H23         -5.9740    -2.1370    -5.9470 h1         1 D08       0.044200
     54 H21         -5.9780    -0.0990    -7.3920 h1         1 D08       0.044200
     55 H20         -4.6190     1.0190    -7.2130 h1         1 D08       0.044200
     56 H28         -4.2680    -2.7070    -8.7510 ho         1 D08       0.392000
     57 H29         -8.5070     0.0080    -5.2270 ho         1 D08       0.392000
     58 C17         -3.7830     0.0910    -4.9710 c          1 D08       0.582100
     59 O01          2.0630     0.0020     3.5810 os         1 D08      -0.289900
@<TRIPOS>BOND
     1     1     2 1   
     2     1    15 ar  
     3     1    16 ar  
     4     2    18 1   
     5     2    23 2   
     6     3    18 1   
     7     3    19 1   
     8     3    22 1   
     9     3    28 1   
    10     4    25 1   
    11     4    26 1   
    12     4    29 1   
    13     4    30 1   
    14     5    24 1   
    15     5    27 1   
    16     5    31 1   
    17     5    32 1   
    18     6    33 1   
    19     6    34 1   
    20     6    35 1   
    21     6    59 1   
    22     7     8 ar  
    23     7    17 ar  
    24     7    59 1   
    25     8     9 1   
    26     8    15 ar  
    27     9    10 1   
    28    10    11 1   
    29    10    14 1   
    30    10    36 1   
    31    11    12 1   
    32    11    37 1   
    33    11    38 1   
    34    12    13 1   
    35    12    39 1   
    36    12    40 1   
    37    13    14 1   
    38    13    41 1   
    39    13    42 1   
    40    14    43 1   
    41    14    44 1   
    42    15    45 1   
    43    16    17 ar  
    44    16    46 1   
    45    17    47 1   
    46    18    48 1   
    47    18    49 1   
    48    19    50 1   
    49    19    51 1   
    50    19    58 1   
    51    20    58 2   
    52    21    24 1   
    53    21    25 1   
    54    21    58 1   
    55    22    23 1   
    56    24    52 1   
    57    24    53 1   
    58    25    54 1   
    59    25    55 1   
    60    26    56 1   
    61    27    57 1   
@<TRIPOS>SUBSTRUCTURE
     1 D08         1 TEMP              0 ****  ****    0 ROOT
