@<TRIPOS>MOLECULE
D09
   38    40     1     0     0
SMALL
bcc


@<TRIPOS>ATOM
      1 C'1        -0.0060   -0.0110   -0.0840 ca        1 D09     -0.090800
      2 C'2         1.4060    0.0290   -0.0260 ca        1 D09      0.137100
      3 C'3         2.0690    0.0820    1.2080 ca        1 D09     -0.206000
      4 C'4         1.3300    0.1000    2.3890 ca        1 D09     -0.092000
      5 C'5        -0.0620    0.0710    2.3470 ca        1 D09     -0.164000
      6 C'6        -0.7200    0.0190    1.1190 ca        1 D09     -0.091000
      7 N1'        -4.1070    2.5120   -5.6530 nb        1 D09     -0.764000
      8 C10        -0.4620   -1.2560   -2.2100 c3        1 D09     -0.067900
      9 C11        -0.7410   -0.0790   -1.3530 ce        1 D09     -0.016400
     10 C13         3.4840    0.0800   -1.1960 c3        1 D09      0.111700
     11 O13         2.0630    0.0240   -1.2420 os        1 D09     -0.325900
     12 C2'        -3.6040    3.8150   -5.5960 ca        1 D09      0.918900
     13 N2'        -3.9920    4.6780   -6.6230 nh        1 D09     -0.931500
     14 N3'        -2.7110    4.3250   -4.6630 nb        1 D09     -0.835000
     15 C4'        -2.2460    3.4810   -3.6890 ca        1 D09      0.762200
     16 N4'        -1.3970    3.9690   -2.7100 nh        1 D09     -0.942500
     17 C5'        -2.6800    2.1250   -3.6540 ca        1 D09     -0.435400
     18 C6'        -2.4430    0.9440   -2.8460 cd        1 D09     -0.032200
     19 C7'        -3.1970   -0.0640   -3.4080 cc        1 D09     -0.043900
     20 C8'        -3.6030    1.7300   -4.6800 ca        1 D09      0.646600
     21 O8'        -3.9250    0.3770   -4.5300 os        1 D09     -0.305400
     22 C9'        -1.6250    0.8890   -1.6650 cf        1 D09     -0.130000
     23 H'3         3.1660    0.1110    1.2560 ha        1 D09      0.138000
     24 H'4         1.8530    0.1390    3.3560 ha        1 D09      0.134000
     25 H'5        -0.6440    0.0890    3.2800 ha        1 D09      0.136000
     26 H'6        -1.8210   -0.0020    1.0870 ha        1 D09      0.140000
     27 H10         0.6420   -1.4180   -2.3010 hc        1 D09      0.052700
     28 H10A       -0.9150   -2.1720   -1.7550 hc        1 D09      0.052700
     29 H10B       -0.8870   -1.1210   -3.2360 hc        1 D09      0.052700
     30 H13         3.8980   -0.8120   -0.6670 h1        1 D09      0.045700
     31 H13A        3.7770    0.0710   -2.2760 h1        1 D09      0.045700
     32 H13B        3.8270    1.0230   -0.7030 h1        1 D09      0.045700
     33 HN2'       -3.8520    5.6490   -6.4760 hn        1 D09      0.432300
     34 HN2A       -4.7860    4.4130   -7.1590 hn        1 D09      0.432300
     35 HN4'       -0.9750    4.8560   -2.8500 hn        1 D09      0.429800
     36 HN4A       -0.8620    3.2870   -2.2230 hn        1 D09      0.429800
     37 H7'        -3.3670   -1.1120   -3.1750 h4        1 D09      0.195000
     38 H9'        -1.7740    1.7340   -0.9650 ha        1 D09      0.134000
@<TRIPOS>BOND
     1    1    2 ar
     2    1    6 ar
     3    1    9 1
     4    2    3 ar
     5    2   11 1
     6    3    4 ar
     7    3   23 1
     8    4    5 ar
     9    4   24 1
    10    5    6 ar
    11    5   25 1
    12    6   26 1
    13    7   12 ar
    14    7   20 ar
    15    8    9 1
    16    8   27 1
    17    8   28 1
    18    8   29 1
    19    9   22 2
    20   10   11 1
    21   10   30 1
    22   10   31 1
    23   10   32 1
    24   12   13 1
    25   12   14 ar
    26   13   33 1
    27   13   34 1
    28   14   15 ar
    29   15   16 1
    30   15   17 ar
    31   16   35 1
    32   16   36 1
    33   17   18 1
    34   17   20 ar
    35   18   19 2
    36   18   22 1
    37   19   21 1
    38   19   37 1
    39   20   21 1
    40   22   38 1
@<TRIPOS>SUBSTRUCTURE
     1 D09         1 TEMP              0 ****  ****    0 ROOT
