@<TRIPOS>MOLECULE
molecule
   37    40     1     0     0
SMALL
bcc


@<TRIPOS>ATOM
      1 C13          0.0000     0.0000     0.0000 ca         1 D0A      -0.247300
      2 C17          2.0550     0.0000     1.2300 ca         1 D0A      -0.049400
      3 C16          1.3080     0.0130     2.3920 ca         1 D0A       0.405200
      4 C19         -2.4160     2.0280    -4.6220 ca         1 D0A      -0.180300
      5 C20         -3.7160     2.4980    -4.5500 ca         1 D0A      -0.107000
      6 C21         -4.3180     2.5920    -3.3050 ca         1 D0A      -0.196300
      7 C22         -3.6080     2.2150    -2.1790 ca         1 D0A       0.331600
      8 C24         -4.2590     2.3140    -0.8220 c3         1 D0A       0.586600
      9 C11         -1.7610     1.6670    -3.4480 cp         1 D0A       0.385300
     10 C12          1.3930     0.0000     0.0000 ca         1 D0A       0.148600
     11 C1           2.1460     0.2330    -3.6100 ca         1 D0A      -0.391400
     12 C2           1.4670     0.6030    -4.7880 ca         1 D0A       0.521800
     13 N3           0.2210     1.0560    -4.6880 nb         1 D0A      -0.790000
     14 C4          -0.3690     1.1570    -3.5080 cp         1 D0A       0.690000
     15 N5           0.2370     0.8170    -2.3760 nb         1 D0A      -0.782000
     16 C6           1.4800     0.3510    -2.3800 ca         1 D0A       0.765200
     17 C7           3.4720    -0.2170    -4.0290 cc         1 D0A      -0.170200
     18 C8           3.5180    -0.0990    -5.3670 cd         1 D0A      -0.102100
     19 N9           2.3250     0.3900    -5.8320 na         1 D0A      -0.268100
     20 N10          2.1090    -0.0010    -1.1960 nu         1 D0A      -0.742300
     21 C14         -0.6710     0.0070     1.2060 ca         1 D0A       0.428200
     22 N15         -0.0120     0.0130     2.3480 nb         1 D0A      -0.690000
     23 F18          3.4040     0.0010     1.2830 f          1 D0A      -0.145900
     24 N23         -2.3730     1.7710    -2.2750 nb         1 D0A      -0.618000
     25 F25         -4.9120     1.1110    -0.5300 f          1 D0A      -0.214633
     26 F26         -3.2810     2.5610     0.1460 f          1 D0A      -0.214633
     27 F27         -5.1870     3.3600    -0.8260 f          1 D0A      -0.214633
     28 H32         -0.5490    -0.0020    -0.9340 ha         1 D0A       0.206000
     29 H34          1.8110     0.0150     3.3520 h4         1 D0A       0.033100
     30 H35         -1.9150     1.9430    -5.5790 ha         1 D0A       0.169000
     31 H36         -4.2510     2.7870    -5.4470 ha         1 D0A       0.150000
     32 H37         -5.3350     2.9550    -3.2150 ha         1 D0A       0.156000
     33 H28          4.2660    -0.5760    -3.3850 ha         1 D0A       0.157000
     34 H29          4.3700    -0.3520    -5.9860 h4         1 D0A       0.176000
     35 H30          2.1130     0.5660    -6.7940 hn         1 D0A       0.309700
     36 H31          3.0730    -0.2690    -1.2020 hn         1 D0A       0.470800
     37 H33         -1.7550     0.0070     1.2150 h4         1 D0A       0.035100
@<TRIPOS>BOND
     1    22    21 ar
     2    22     3 ar
     3    21     1 ar
     4     3     2 ar
     5     1    10 ar
     6     2    10 ar
     7     2    23 1
     8     5     6 ar
     9     5     4 ar
    10     6     7 ar
    11    10    20 1
    12     4     9 ar
    13    27     8 1
    14     7     8 1
    15     7    24 ar
    16    26     8 1
    17    20    16 1
    18     8    25 1
    19     9    24 ar
    20     9    14 1
    21    15    16 ar
    22    15    14 ar
    23    16    11 ar
    24    14    13 ar
    25    11    12 ar
    26    11    17 1
    27    13    12 ar
    28    12    19 1
    29    17    18 2
    30    19    18 1
    31     1    28 1
    32     3    29 1
    33     4    30 1
    34     5    31 1
    35     6    32 1
    36    17    33 1
    37    18    34 1
    38    19    35 1
    39    20    36 1
    40    21    37 1
@<TRIPOS>SUBSTRUCTURE
     1 D0A         1 TEMP              0 ****  ****    0 ROOT
