@<TRIPOS>MOLECULE
molecule
   64    67     1     0     0
SMALL
bcc


@<TRIPOS>ATOM
      1 C10          0.0000     0.0000     0.0000 ca         1 D0B      -0.114500
      2 C13         -0.7440     0.0000    -1.2840 cc         1 D0B       0.402800
      3 C15         -0.2260     1.1980    -5.2970 c3         1 D0B      -0.176400
      4 C17          0.8350     2.1900    -8.8540 c3         1 D0B       0.072500
      5 C20          1.3190     3.2180    -6.6020 c3         1 D0B       0.072500
      6 C21         -2.4240     0.0020    -2.7520 cd         1 D0B      -0.108300
      7 C22         -2.1450     0.0000    -1.4300 cc         1 D0B      -0.340300
      8 C24          1.7720     5.6780    -6.5340 c3         1 D0B      -0.106600
      9 C01          1.2830    -0.0010     4.7800 c3         1 D0B       0.126700
     10 C02          1.3840    -0.0000     2.4040 ca         1 D0B       0.118100
     11 C03          2.0830     0.0000     1.1990 ca         1 D0B       0.114100
     12 O02          3.4430    -0.0000     1.2010 os         1 D0B      -0.308900
     13 C04          4.0940    -0.1230    -0.0650 c3         1 D0B       0.134100
     14 C05          5.5160    -0.6930     0.1120 c3         1 D0B      -0.093900
     15 C06          6.4120     0.0360    -0.9040 c3         1 D0B      -0.083400
     16 C07          5.5030     1.0240    -1.6640 c3         1 D0B      -0.083400
     17 C08          4.3210     1.2740    -0.6950 c3         1 D0B      -0.093900
     18 C09          1.3930     0.0000     0.0000 ca         1 D0B      -0.167000
     19 C11         -0.6940     0.0050     1.2090 ca         1 D0B      -0.110000
     20 C12         -0.0020     0.0050     2.4030 ca         1 D0B      -0.194000
     21 N01         -0.2110     0.0070    -2.4870 nd         1 D0B      -0.521800
     22 N02         -1.2520     0.0050    -3.4250 na         1 D0B       0.060400
     23 C14         -1.0970     0.0110    -4.8810 c3         1 D0B       0.091300
     24 C16         -0.0670     1.2030    -6.7960 c          1 D0B       0.665100
     25 N03          0.6660     2.1640    -7.3930 n          1 D0B      -0.490800
     26 C18          0.4950     3.5980    -9.3560 c3         1 D0B       0.126100
     27 O03          1.2500     4.5570    -8.6120 os         1 D0B      -0.414600
     28 C19          0.9550     4.5770    -7.2130 c3         1 D0B       0.126100
     29 O04         -0.5980     0.3410    -7.4650 o          1 D0B      -0.618100
     30 C23         -0.9990     3.8620    -9.1630 c3         1 D0B      -0.106600
     31 H01         -0.6970     2.1200    -4.9810 hc         1 D0B       0.078700
     32 H19          0.7480     1.1110    -4.8310 hc         1 D0B       0.078700
     33 H21          1.8610     1.9520    -9.1060 h1         1 D0B       0.065450
     34 H25          0.9680     3.1750    -5.5780 h1         1 D0B       0.065450
     35 H24          2.3930     3.0820    -6.6310 h1         1 D0B       0.065450
     36 H26         -3.4120     0.0010    -3.1940 h4         1 D0B       0.170000
     37 H27         -2.8700    -0.0030    -0.6260 ha         1 D0B       0.155000
     38 H30          2.8220     5.4160    -6.5580 hc         1 D0B       0.047033
     39 H28          1.4490     5.7850    -5.5050 hc         1 D0B       0.047033
     40 H29          1.6220     6.6150    -7.0580 hc         1 D0B       0.047033
     41 H02          0.7020     0.9120     4.8270 h1         1 D0B       0.040367
     42 H03          0.6170    -0.8550     4.8120 h1         1 D0B       0.040367
     43 H04          1.9630    -0.0400     5.6220 h1         1 D0B       0.040367
     44 H05          3.5180    -0.7500    -0.7350 h1         1 D0B       0.056700
     45 H07          5.5160    -1.7570    -0.0920 hc         1 D0B       0.057450
     46 H06          5.8680    -0.5020     1.1190 hc         1 D0B       0.057450
     47 H08          6.8420    -0.6780    -1.5970 hc         1 D0B       0.045700
     48 H09          7.1950     0.5770    -0.3860 hc         1 D0B       0.045700
     49 H10          6.0320     1.9490    -1.8610 hc         1 D0B       0.045700
     50 H11          5.1490     0.5790    -2.5860 hc         1 D0B       0.045700
     51 H12          3.4410     1.5940    -1.2400 hc         1 D0B       0.057450
     52 H13          4.5950     1.9960     0.0650 hc         1 D0B       0.057450
     53 H14          1.9360     0.0000    -0.9380 ha         1 D0B       0.159000
     54 H15         -1.7770     0.0090     1.2110 ha         1 D0B       0.135000
     55 H16         -0.5430     0.0080     3.3410 ha         1 D0B       0.140000
     56 H17         -0.6250    -0.9120    -5.1980 h1         1 D0B       0.076700
     57 H18         -2.0710     0.0970    -5.3480 h1         1 D0B       0.076700
     58 H22          0.7490     3.6770   -10.4060 h1         1 D0B       0.065700
     59 H23         -0.1020     4.7640    -7.0710 h1         1 D0B       0.065700
     60 H32         -1.5610     3.3280    -9.9200 hc         1 D0B       0.047033
     61 H33         -1.3020     3.5200    -8.1800 hc         1 D0B       0.047033
     62 H31         -1.1930     4.9240    -9.2510 hc         1 D0B       0.047033
     63 O01          2.0630    -0.0000     3.5810 os         1 D0B      -0.311900
     64 H20          0.1660     1.4700    -9.3100 h1         1 D0B       0.065450
@<TRIPOS>BOND
     1     9    63 1
     2    20    19 ar
     3    20    10 ar
     4    19     1 ar
     5    63    10 1
     6     3    23 1
     7     3    24 1
     8    10    11 ar
     9    21    22 1
    10    21     2 2
    11    23    22 1
    12     1     2 1
    13     1    18 ar
    14    22     6 1
    15     2     7 1
    16    11    18 ar
    17    11    12 1
    18    24    29 2
    19    24    25 1
    20     4    25 1
    21     4    26 1
    22    30    26 1
    23    25     5 1
    24     6     7 2
    25    12    13 1
    26    26    27 1
    27     5    28 1
    28    27    28 1
    29    13    14 1
    30    13    17 1
    31    28     8 1
    32    14    15 1
    33    17    16 1
    34    16    15 1
    35     3    31 1
    36     3    32 1
    37     4    64 1
    38     4    33 1
    39     5    34 1
    40     5    35 1
    41     6    36 1
    42     7    37 1
    43     8    38 1
    44     8    39 1
    45     8    40 1
    46     9    41 1
    47     9    42 1
    48     9    43 1
    49    13    44 1
    50    14    45 1
    51    14    46 1
    52    15    47 1
    53    15    48 1
    54    16    49 1
    55    16    50 1
    56    17    51 1
    57    17    52 1
    58    18    53 1
    59    19    54 1
    60    20    55 1
    61    23    56 1
    62    23    57 1
    63    26    58 1
    64    28    59 1
    65    30    60 1
    66    30    61 1
    67    30    62 1
@<TRIPOS>SUBSTRUCTURE
     1 D0B         1 TEMP              0 ****  ****    0 ROOT
