@<TRIPOS>MOLECULE
molecule
   58    61     1     0     0
SMALL
bcc


@<TRIPOS>ATOM
      1 C10          0.0000     0.0000     0.0000 ca         1 D0E      -0.114500
      2 C13         -0.7430     0.0060    -1.2850 cc         1 D0E       0.402800
      3 C15         -0.1300     0.9710    -5.3480 c3         1 D0E      -0.176400
      4 C17          1.5820     2.7900    -6.7410 c3         1 D0E       0.066000
      5 C20          1.0080     1.7030    -8.9440 c3         1 D0E       0.066000
      6 C21         -2.4180     0.0830    -2.7570 cd         1 D0E      -0.108300
      7 C22         -2.1390     0.1170    -1.4350 cc         1 D0E      -0.341300
      8 C01          1.2790    -0.0160     4.7800 c3         1 D0E       0.126700
      9 C02          1.3820    -0.0110     2.4040 ca         1 D0E       0.118100
     10 C03          2.0820     0.0000     1.2000 ca         1 D0E       0.114100
     11 O02          3.4420     0.0050     1.2040 os         1 D0E      -0.308900
     12 C04          4.0940    -0.1130    -0.0630 c3         1 D0E       0.134100
     13 C05          5.5190    -0.6780     0.1150 c3         1 D0E      -0.093900
     14 C06          6.4130     0.0570    -0.9000 c3         1 D0E      -0.083900
     15 C07          5.5010     1.0430    -1.6580 c3         1 D0E      -0.083900
     16 C08          4.3130     1.2860    -0.6910 c3         1 D0E      -0.093900
     17 C09          1.3940     0.0000     0.0000 ca         1 D0E      -0.168000
     18 C11         -0.6950     0.0000     1.2070 ca         1 D0E      -0.109000
     19 C12         -0.0040    -0.0060     2.4020 ca         1 D0E      -0.194000
     20 N01         -0.2130    -0.0850    -2.4870 nd         1 D0E      -0.523800
     21 N02         -1.2520    -0.0410    -3.4250 na         1 D0E       0.062400
     22 C14         -1.0990    -0.1160    -4.8800 c3         1 D0E       0.091300
     23 C16          0.0270     0.8930    -6.8450 c          1 D0E       0.666100
     24 N03          0.8380     1.7590    -7.4840 n          1 D0E      -0.492800
     25 C18          3.0550     2.7210    -7.1600 c3         1 D0E       0.120400
     26 O03          3.1420     2.7810    -8.5850 os         1 D0E      -0.417600
     27 C19          2.5100     1.6890    -9.2570 c3         1 D0E       0.120400
     28 O04         -0.5760     0.0510    -7.4750 o          1 D0E      -0.616100
     29 H19         -0.5200     1.9440    -5.0760 hc         1 D0E       0.078700
     30 H01          0.8340     0.8230    -4.8760 hc         1 D0E       0.078700
     31 H20          1.1820     3.7680    -6.9770 h1         1 D0E       0.065700
     32 H26          0.5510     2.5750    -9.3970 h1         1 D0E       0.065700
     33 H27          0.5480     0.8010    -9.3290 h1         1 D0E       0.065700
     34 H28         -3.4040     0.1450    -3.2020 h4         1 D0E       0.170000
     35 H29         -2.8610     0.2100    -0.6330 ha         1 D0E       0.155000
     36 H02          0.6570     0.8700     4.8210 h1         1 D0E       0.040367
     37 H03          1.9550    -0.0220     5.6260 h1         1 D0E       0.040367
     38 H04          0.6520    -0.8990     4.8120 h1         1 D0E       0.040367
     39 H05          3.5210    -0.7410    -0.7340 h1         1 D0E       0.056700
     40 H06          5.5220    -1.7420    -0.0920 hc         1 D0E       0.057700
     41 H07          5.8690    -0.4890     1.1220 hc         1 D0E       0.057700
     42 H08          6.8460    -0.6540    -1.5940 hc         1 D0E       0.044950
     43 H09          7.1930     0.5990    -0.3800 hc         1 D0E       0.044950
     44 H11          5.1510     0.5990    -2.5820 hc         1 D0E       0.044950
     45 H10          6.0270     1.9700    -1.8500 hc         1 D0E       0.044950
     46 H13          3.4330     1.6010    -1.2390 hc         1 D0E       0.057700
     47 H12          4.5810     2.0090     0.0700 hc         1 D0E       0.057700
     48 H14          1.9370     0.0090    -0.9370 ha         1 D0E       0.158000
     49 H15         -1.7790     0.0040     1.2080 ha         1 D0E       0.136000
     50 H16         -0.5460    -0.0060     3.3400 ha         1 D0E       0.140000
     51 H18         -2.0630     0.0320    -5.3530 h1         1 D0E       0.076700
     52 H17         -0.7090    -1.0900    -5.1530 h1         1 D0E       0.076700
     53 H22          3.5920     3.5580    -6.7300 h1         1 D0E       0.056700
     54 H23          3.4860     1.7910    -6.8110 h1         1 D0E       0.056700
     55 H24          2.9410     0.7560    -8.9130 h1         1 D0E       0.056700
     56 H25          2.6570     1.7890   -10.3250 h1         1 D0E       0.056700
     57 O01          2.0600    -0.0160     3.5820 os         1 D0E      -0.311900
     58 H21          1.4980     2.6020    -5.6770 h1         1 D0E       0.065700
@<TRIPOS>BOND
     1    27    26 1
     2    27     5 1
     3    26    25 1
     4    14    13 1
     5    14    15 1
     6    13    12 1
     7     5    24 1
     8    25     4 1
     9    15    16 1
    10    16    12 1
    11    12    11 1
    12    24     4 1
    13    24    23 1
    14    28    23 2
    15    11    10 1
    16    23     3 1
    17     7     6 2
    18     7     2 1
    19     6    21 1
    20    17    10 ar
    21    17     1 ar
    22    10     9 ar
    23     2     1 1
    24     2    20 2
    25     1    18 ar
    26    21    20 1
    27    21    22 1
    28     3    22 1
    29     9    57 1
    30     9    19 ar
    31    57     8 1
    32    18    19 ar
    33     3    29 1
    34     3    30 1
    35     4    58 1
    36     4    31 1
    37     5    32 1
    38     5    33 1
    39     6    34 1
    40     7    35 1
    41     8    36 1
    42     8    37 1
    43     8    38 1
    44    12    39 1
    45    13    40 1
    46    13    41 1
    47    14    42 1
    48    14    43 1
    49    15    44 1
    50    15    45 1
    51    16    46 1
    52    16    47 1
    53    17    48 1
    54    18    49 1
    55    19    50 1
    56    22    51 1
    57    22    52 1
    58    25    53 1
    59    25    54 1
    60    27    55 1
    61    27    56 1
@<TRIPOS>SUBSTRUCTURE
     1 D0E         1 TEMP              0 ****  ****    0 ROOT
