@<TRIPOS>MOLECULE
molecule
   52    51     1     0     0
SMALL
bcc


@<TRIPOS>ATOM
      1 C15          0.0000     0.0000     0.0000 c3         1 D0G      -0.063400
      2 C01          1.5300     0.0000     0.0000 c3         1 D0G      -0.088400
      3 C02          2.0400     0.0000     1.4430 c3         1 D0G      -0.081400
      4 C03          3.5700     0.0010     1.4440 c3         1 D0G      -0.083400
      5 C04          4.0780    -0.0000     2.8860 c3         1 D0G      -0.082400
      6 C05          5.6090     0.0010     2.8870 c3         1 D0G      -0.082400
      7 C06          6.1180     0.0010     4.3300 c3         1 D0G      -0.082400
      8 C07          7.6480     0.0010     4.3300 c3         1 D0G      -0.082400
      9 C08          8.1580     0.0010     5.7740 c3         1 D0G      -0.082400
     10 C09          9.6870     0.0020     5.7740 c3         1 D0G      -0.083400
     11 C10         10.1970     0.0010     7.2160 c3         1 D0G      -0.077400
     12 C11         11.7270     0.0020     7.2170 c3         1 D0G      -0.074700
     13 C12         12.2360    -0.1250     8.6540 c3         1 D0G      -0.080400
     14 C13         12.2360     1.3090     6.6080 c3         1 D0G      -0.089100
     15 C14         13.7610    -0.2490     8.6460 c3         1 D0G      -0.092100
     16 C16         -0.5100     0.0000    -1.4430 c3         1 D0G      -0.183400
     17 C17         -2.0170    -0.0010    -1.4440 c          1 D0G       0.890600
     18 O01         -2.6210    -0.0000    -0.3970 o          1 D0G      -0.858300
     19 O02         -2.6880    -0.0000    -2.6060 o          1 D0G      -0.858300
     20 H1          -0.3610     0.8850     0.5110 hc         1 D0G       0.044700
     21 H2          -0.3610    -0.8850     0.5110 hc         1 D0G       0.044700
     22 H3           1.8910     0.8850    -0.5110 hc         1 D0G       0.028700
     23 H4           1.8910    -0.8850    -0.5110 hc         1 D0G       0.028700
     24 H5           1.6780     0.8840     1.9540 hc         1 D0G       0.038700
     25 H6           1.6790    -0.8850     1.9540 hc         1 D0G       0.038700
     26 H7           3.9300     0.8860     0.9340 hc         1 D0G       0.036700
     27 H8           3.9310    -0.8830     0.9320 hc         1 D0G       0.036700
     28 H9           3.7160     0.8840     3.3980 hc         1 D0G       0.039700
     29 H10          3.7180    -0.8850     3.3960 hc         1 D0G       0.039700
     30 H11          5.9700     0.8860     2.3770 hc         1 D0G       0.038700
     31 H12          5.9710    -0.8830     2.3770 hc         1 D0G       0.038700
     32 H13          5.7570    -0.8840     4.8400 hc         1 D0G       0.039700
     33 H14          5.7570     0.8860     4.8400 hc         1 D0G       0.039700
     34 H15          8.0090    -0.8840     3.8190 hc         1 D0G       0.039700
     35 H16          8.0090     0.8850     3.8190 hc         1 D0G       0.039700
     36 H17          7.7970    -0.8840     6.2840 hc         1 D0G       0.040200
     37 H18          7.7960     0.8850     6.2840 hc         1 D0G       0.040200
     38 H19         10.0490    -0.8820     5.2620 hc         1 D0G       0.041200
     39 H20         10.0480     0.8870     5.2640 hc         1 D0G       0.041200
     40 H21          9.8350     0.8850     7.7270 hc         1 D0G       0.041200
     41 H22          9.8360    -0.8840     7.7260 hc         1 D0G       0.041200
     42 H23         12.0890    -0.8340     6.6310 hc         1 D0G       0.049700
     43 H24         11.8050    -1.0050     9.1140 hc         1 D0G       0.040200
     44 H25         11.9490     0.7550     9.2180 hc         1 D0G       0.040200
     45 H26         11.8000     2.1480     7.1360 hc         1 D0G       0.033367
     46 H27         11.9550     1.3540     5.5630 hc         1 D0G       0.033367
     47 H28         13.3160     1.3510     6.6930 hc         1 D0G       0.033367
     48 H29         14.2040     0.7360     8.5610 hc         1 D0G       0.031367
     49 H30         14.0900    -0.7150     9.5670 hc         1 D0G       0.031367
     50 H31         14.0690    -0.8580     7.8040 hc         1 D0G       0.031367
     51 H32         -0.1480    -0.8840    -1.9540 hc         1 D0G       0.026700
     52 H33         -0.1490     0.8850    -1.9540 hc         1 D0G       0.026700
@<TRIPOS>BOND
     1    18    17 1
     2    17    19 1
     3    17    16 1
     4    16     1 1
     5     1     2 1
     6     2     3 1
     7     3     4 1
     8     4     5 1
     9     5     6 1
    10     6     7 1
    11     7     8 1
    12     8     9 1
    13     9    10 1
    14    10    11 1
    15    11    12 1
    16    12    14 1
    17    12    13 1
    18    13    15 1
    19     1    20 1
    20     1    21 1
    21     2    22 1
    22     2    23 1
    23     3    24 1
    24     3    25 1
    25     4    26 1
    26     4    27 1
    27     5    28 1
    28     5    29 1
    29     6    30 1
    30     6    31 1
    31     7    32 1
    32     7    33 1
    33     8    34 1
    34     8    35 1
    35     9    36 1
    36     9    37 1
    37    10    38 1
    38    10    39 1
    39    11    40 1
    40    11    41 1
    41    12    42 1
    42    13    43 1
    43    13    44 1
    44    14    45 1
    45    14    46 1
    46    14    47 1
    47    15    48 1
    48    15    49 1
    49    15    50 1
    50    16    51 1
    51    16    52 1
@<TRIPOS>SUBSTRUCTURE
     1 D0G         1 TEMP              0 ****  ****    0 ROOT
