@<TRIPOS>MOLECULE
D0K
   52    54     1     0     0
SMALL
bcc


@<TRIPOS>ATOM
      1 CBD          0.0000     0.0000     0.0000 c3         1 D0K       0.243700
      2 OBC          1.4280     0.0000     0.0000 os         1 D0K      -0.310900
      3 CAZ          2.0450     0.0000     1.2130 ca         1 D0K       0.099100
      4 CBA          1.2880    -0.0060     2.3750 ca         1 D0K      -0.127000
      5 CBB          1.9130    -0.0060     3.6070 ca         1 D0K      -0.134500
      6 CAY          3.4300     0.0000     1.2860 ca         1 D0K      -0.127000
      7 CAX          4.0570    -0.0000     2.5170 ca         1 D0K      -0.134500
      8 CAW          3.3000    -0.0000     3.6810 ca         1 D0K       0.041600
      9 NAK          3.9340     0.0000     4.9290 nu         1 D0K      -0.254000
     10 CAJ          5.3150    -0.0920     5.0040 ca         1 D0K       0.140600
     11 CAI          5.9330    -1.2810     5.3730 ca         1 D0K      -0.306300
     12 CAH          7.3180    -1.3320     5.4360 ca         1 D0K       0.412200
     13 NAL          7.9420    -2.5180     5.8040 ns         1 D0K      -0.125400
     14 CAM          9.2790    -2.5530     5.9690 c          1 D0K       0.550100
     15 OAO          9.9490    -1.5730     5.7070 o          1 D0K      -0.632100
     16 NAN          9.8730    -3.6740     6.4250 ns         1 D0K      -0.224900
     17 CAP         11.3280    -3.7110     6.6040 c3         1 D0K       0.067000
     18 CAQ         11.7410    -5.0880     7.1280 c3         1 D0K      -0.008100
     19 NAG          8.0560    -0.2670     5.1510 nb         1 D0K      -0.560000
     20 CAF          7.5180     0.8810     4.7970 ca         1 D0K       0.464200
     21 CAE          6.1320     1.0190     4.7030 ca         1 D0K      -0.343900
     22 CAC          5.5340     2.3020     4.3020 c          1 D0K       0.598700
     23 OAD          4.3270     2.4440     4.3240 o          1 D0K      -0.629100
     24 NAB          6.3240     3.3210     3.9100 ns         1 D0K      -0.031100
     25 CAA          5.7670     4.5760     3.6420 ca         1 D0K      -0.202700
     26 CAR          4.6780     5.0380     4.3780 ca         1 D0K      -0.071000
     27 CAS          4.1620     6.2870     4.0750 ca         1 D0K      -0.200300
     28 CAT          4.7380     7.0280     3.0610 ca         1 D0K       0.383200
     29 NAU          5.7680     6.5620     2.3810 nb         1 D0K      -0.564000
     30 CAV          6.2940     5.3820     2.6410 ca         1 D0K       0.370200
     31 H1          -0.3610     0.8830     0.5140 h1         1 D0K      -0.005300
     32 H2          -0.3610    -0.8860     0.5080 h1         1 D0K      -0.005300
     33 H3          -0.3610     0.0040    -1.0210 h1         1 D0K      -0.005300
     34 H4           0.2060    -0.0100     2.3170 ha         1 D0K       0.113000
     35 H5           1.3220    -0.0080     4.5150 ha         1 D0K       0.108500
     36 H6           4.0200     0.0010     0.3780 ha         1 D0K       0.113000
     37 H7           5.1390     0.0020     2.5740 ha         1 D0K       0.108500
     38 H8           3.3880     0.0290     5.7670 hn         1 D0K       0.292800
     39 H9           5.3420    -2.0990     5.7690 ha         1 D0K       0.124000
     40 H10          7.4020    -3.3530     5.9230 hn         1 D0K       0.165500
     41 H11          9.3250    -4.4910     6.6110 hn         1 D0K       0.166500
     42 H12         11.8140    -3.5250     5.6540 h1         1 D0K       0.025700
     43 H13         11.6230    -2.9500     7.3160 h1         1 D0K       0.025700
     44 H14         11.4520    -5.8480     6.4120 hc         1 D0K       0.008033
     45 H15         11.2490    -5.2770     8.0740 hc         1 D0K       0.008033
     46 H16         12.8150    -5.1140     7.2680 hc         1 D0K       0.008033
     47 H17          8.1580     1.7250     4.5710 h4         1 D0K      -0.020900
     48 H18          7.2900     3.1530     3.7080 hn         1 D0K       0.174500
     49 H19          4.2470     4.4350     5.1680 ha         1 D0K       0.140000
     50 H20          3.3160     6.6780     4.6270 ha         1 D0K       0.113000
     51 H21          4.3360     8.0050     2.8190 h4         1 D0K      -0.020900
     52 H22          7.1400     5.0330     2.0610 h4         1 D0K      -0.019900
@<TRIPOS>BOND
     1     1     2 1   
     2     1    31 1   
     3     1    32 1   
     4     1    33 1   
     5     2     3 1   
     6     3     4 ar  
     7     3     6 ar  
     8     4     5 ar  
     9     4    34 1   
    10     5     8 ar  
    11     5    35 1   
    12     6     7 ar  
    13     6    36 1   
    14     7     8 ar  
    15     7    37 1   
    16     8     9 1   
    17     9    10 1   
    18     9    38 1   
    19    10    11 ar  
    20    10    21 ar  
    21    11    12 ar  
    22    11    39 1   
    23    12    13 1   
    24    12    19 ar  
    25    13    14 1   
    26    13    40 1   
    27    14    15 2   
    28    14    16 1   
    29    16    17 1   
    30    16    41 1   
    31    17    18 1   
    32    17    42 1   
    33    17    43 1   
    34    18    44 1   
    35    18    45 1   
    36    18    46 1   
    37    19    20 ar  
    38    20    21 ar  
    39    20    47 1   
    40    21    22 1   
    41    22    23 2   
    42    22    24 1   
    43    24    25 1   
    44    24    48 1   
    45    25    26 ar  
    46    25    30 ar  
    47    26    27 ar  
    48    26    49 1   
    49    27    28 ar  
    50    27    50 1   
    51    28    29 ar  
    52    28    51 1   
    53    29    30 ar  
    54    30    52 1   
@<TRIPOS>SUBSTRUCTURE
     1 D0K         1 TEMP              0 ****  ****    0 ROOT
