@<TRIPOS>MOLECULE
D0M
   20    19     1     0     0
SMALL
bcc


@<TRIPOS>ATOM
      1 N1           0.0000     0.0000     0.0000 nz         1 D0M       0.059400
      2 C1           1.4690     0.0000     0.0000 c3         1 D0M      -0.077500
      3 C2           1.9790     0.0000     1.4420 c3         1 D0M      -0.040400
      4 C3           1.5750     1.3080     2.1260 c3         1 D0M      -0.011100
      5 C4           1.9790    -1.2490    -0.7210 c3         1 D0M      -0.040400
      6 C5           1.5750    -1.1890    -2.1950 c3         1 D0M      -0.011100
      7 H1          -0.3340    -0.8170     0.4710 hn         1 D0M       0.228800
      8 H2           1.8300     0.8840    -0.5110 hx         1 D0M       0.096700
      9 H3           1.5460    -0.8360     1.9780 hc         1 D0M       0.053200
     10 H4           3.0580    -0.0900     1.4440 hc         1 D0M       0.053200
     11 H5           1.6530     2.1250     1.4190 hc         1 D0M       0.020700
     12 H6           0.5530     1.2310     2.4780 hc         1 D0M       0.020700
     13 H7           2.2330     1.4950     2.9670 hc         1 D0M       0.020700
     14 H8           3.0590    -1.2950    -0.6440 hc         1 D0M       0.053200
     15 H9           1.5470    -2.1310    -0.2640 hc         1 D0M       0.053200
     16 H10          2.2320    -1.8240    -2.7760 hc         1 D0M       0.020700
     17 H11          1.6520    -0.1680    -2.5500 hc         1 D0M       0.020700
     18 H12          0.5530    -1.5320    -2.3030 hc         1 D0M       0.020700
     19 H13         -0.3340     0.0000    -0.9440 hn         1 D0M       0.228800
     20 H131        -0.3340     0.8170     0.4720 hn         1 D0M       0.228800
@<TRIPOS>BOND
     1     1     2 1   
     2     1     7 1   
     3     1    19 1   
     4     1    20 1   
     5     2     3 1   
     6     2     5 1   
     7     2     8 1   
     8     3     4 1   
     9     3     9 1   
    10     3    10 1   
    11     4    11 1   
    12     4    12 1   
    13     4    13 1   
    14     5     6 1   
    15     5    14 1   
    16     5    15 1   
    17     6    16 1   
    18     6    17 1   
    19     6    18 1   
@<TRIPOS>SUBSTRUCTURE
     1 D0M         1 TEMP              0 ****  ****    0 ROOT
