@<TRIPOS>MOLECULE
molecule
   44    45     1     0     0
SMALL
bcc


@<TRIPOS>ATOM
      1 F3'          0.0000     0.0000     0.0000 f          1 D0N      -0.246300
      2 C3'          1.3990     0.0000     0.0000 c3         1 D0N       0.141600
      3 C2'          1.9110     0.0000     1.4430 c3         1 D0N       0.099100
      4 O2'          1.4980    -1.2010     2.0970 oh         1 D0N      -0.580800
      5 C1'          3.4400     0.0790     1.4350 c3         1 D0N       0.324900
      6 O1'          3.9730    -1.0760     0.7860 oh         1 D0N      -0.606800
      7 O5'          3.8510     1.2530     0.7310 os         1 D0N      -0.414600
      8 C5'          3.4410     1.2860    -0.6380 c3         1 D0N       0.156100
      9 C6'          3.9580     2.5670    -1.2940 c3         1 D0N       0.148400
     10 O6'          5.3870     2.5480    -1.3170 oh         1 D0N      -0.604800
     11 C4'          1.9120     1.2560    -0.7120 c3         1 D0N       0.085100
     12 O1           1.5010     1.2300    -2.0800 os         1 D0N      -0.418600
     13 C1           0.1780     1.7270    -2.2990 c3         1 D0N       0.302900
     14 C2          -0.2720     1.3720    -3.7190 c3         1 D0N       0.123100
     15 O2          -0.2100    -0.0450    -3.8980 oh         1 D0N      -0.581800
     16 O5           0.1700     3.1470    -2.1390 os         1 D0N      -0.421600
     17 C5           1.0540     3.8380    -3.0240 c3         1 D0N       0.136100
     18 C6           0.9830     5.3410    -2.7440 c3         1 D0N       0.148400
     19 O6           1.4790     5.6060    -1.4300 oh         1 D0N      -0.605800
     20 C4           0.6400     3.5680    -4.4720 c3         1 D0N       0.109100
     21 O4           1.5550     4.2130    -5.3600 oh         1 D0N      -0.600800
     22 C3           0.6560     2.0580    -4.7270 c3         1 D0N       0.130100
     23 O3           0.1990     1.7920    -6.0540 oh         1 D0N      -0.605800
     24 H1           1.7660    -0.8810    -0.5130 h1         1 D0N       0.103700
     25 H2           1.5100     0.8590     1.9680 h1         1 D0N       0.057700
     26 H3           1.0810    -0.9870     2.9150 ho         1 D0N       0.406000
     27 H4           3.8030     0.1250     2.4540 h2         1 D0N       0.073700
     28 H5           4.7510    -1.3600     1.2370 ho         1 D0N       0.416000
     29 H6           3.8430     0.4230    -1.1540 h1         1 D0N       0.082700
     30 H7           3.5820     2.6310    -2.3070 h1         1 D0N       0.042200
     31 H8           3.6180     3.4260    -0.7270 h1         1 D0N       0.042200
     32 H9           5.7070     3.3690    -1.6520 ho         1 D0N       0.403000
     33 H10          1.5100     2.1360    -0.2240 h1         1 D0N       0.073700
     34 H11         -0.5030     1.2810    -1.5840 h2         1 D0N       0.104700
     35 H12         -1.2880     1.7160    -3.8710 h1         1 D0N       0.061700
     36 H13         -1.0800    -0.4060    -3.8520 ho         1 D0N       0.408000
     37 H14          2.0660     3.4850    -2.8680 h1         1 D0N       0.072700
     38 H15          1.5850     5.8730    -3.4710 h1         1 D0N       0.035200
     39 H16         -0.0460     5.6730    -2.8150 h1         1 D0N       0.035200
     40 H17          1.4470     6.5330    -1.2630 ho         1 D0N       0.404000
     41 H18         -0.3610     3.9500    -4.6370 h1         1 D0N       0.051700
     42 H19          1.0750     4.7110    -6.0010 ho         1 D0N       0.412000
     43 H20          1.6640     1.6820    -4.6030 h1         1 D0N       0.076700
     44 H21          0.8680     1.3270    -6.5290 ho         1 D0N       0.417000
@<TRIPOS>BOND
     1     6     5 1
     2    15    14 1
     3     5     7 1
     4     5     3 1
     5    23    22 1
     6     4     3 1
     7     8     7 1
     8     8     9 1
     9     8    11 1
    10     2     3 1
    11     2    11 1
    12     2     1 1
    13    12    11 1
    14    12    13 1
    15    22    14 1
    16    22    20 1
    17     9    10 1
    18    14    13 1
    19    13    16 1
    20    21    20 1
    21    20    17 1
    22    17    16 1
    23    17    18 1
    24    18    19 1
    25     2    24 1
    26     3    25 1
    27     4    26 1
    28     5    27 1
    29     6    28 1
    30     8    29 1
    31     9    30 1
    32     9    31 1
    33    10    32 1
    34    11    33 1
    35    13    34 1
    36    14    35 1
    37    15    36 1
    38    17    37 1
    39    18    38 1
    40    18    39 1
    41    19    40 1
    42    20    41 1
    43    21    42 1
    44    22    43 1
    45    23    44 1
@<TRIPOS>SUBSTRUCTURE
     1 D0N         1 TEMP              0 ****  ****    0 ROOT
