@<TRIPOS>MOLECULE
D0P
   31    32     1     0     0
SMALL
bcc


@<TRIPOS>ATOM
      1 C10          0.0000     0.0000     0.0000 ca         1 D0P       0.130900
      2 C13         -0.0160    -0.0000     2.3970 ca         1 D0P      -0.041000
      3 C15          3.8220    -0.9210     5.1130 ca         1 D0P      -0.115400
      4 C17          4.7480    -3.0960     4.8300 c          1 D0P       0.577100
      5 C02          3.4990     0.0130     6.0950 ca         1 D0P       0.107100
      6 C03          2.4880     0.9350     5.8720 ca         1 D0P      -0.150000
      7 C04          1.7980     0.9310     4.6770 ca         1 D0P      -0.073000
      8 C05          2.1150    -0.0000     3.6910 cp         1 D0P      -0.043000
      9 C06          1.3780    -0.0000     2.4040 cp         1 D0P      -0.067000
     10 C07          2.0770     0.0000     1.1960 ca         1 D0P       0.143900
     11 C09          1.3840     0.0000     0.0000 ca         1 D0P      -0.167000
     12 C12         -0.6970    -0.0010     1.1980 ca         1 D0P      -0.144000
     13 C14          3.1360    -0.9240     3.9100 ca         1 D0P      -0.064000
     14 C18          5.7970    -4.1280     5.1570 c3         1 D0P       0.017700
     15 F08          3.4280     0.0000     1.1960 f          1 D0P      -0.122900
     16 F11         -0.6740     0.0040    -1.1710 f          1 D0P      -0.124900
     17 O01          4.1770     0.0210     7.2740 oh         1 D0P      -0.495100
     18 O20          3.8170    -3.3850     4.1080 o          1 D0P      -0.599100
     19 S19          5.3900    -5.6880     4.3270 sh         1 D0P      -0.337900
     20 H131        -0.5630    -0.0010     3.3320 ha         1 D0P       0.117000
     21 H031         2.2390     1.6600     6.6380 ha         1 D0P       0.114000
     22 H041         1.0080     1.6530     4.5060 ha         1 D0P       0.109000
     23 H091         1.9250     0.0010    -0.9390 ha         1 D0P       0.135000
     24 H121        -1.7810    -0.0010     1.1920 ha         1 D0P       0.123000
     25 H141         3.3850    -1.6500     3.1450 ha         1 D0P       0.159000
     26 H182         6.7650    -3.7800     4.8160 h1         1 D0P       0.042200
     27 H181         5.8270    -4.2860     6.2280 h1         1 D0P       0.042200
     28 H161         5.6620    -1.5830     5.8500 hn         1 D0P       0.169500
     29 H011         4.5710     0.8680     7.4040 ho         1 D0P       0.403000
     30 H1           6.3130    -6.5970     4.6150 hs         1 D0P       0.170800
     31 N16          4.8440    -1.8520     5.3400 ns         1 D0P      -0.018100
@<TRIPOS>BOND
     1     1    11 ar  
     2     1    12 ar  
     3     1    16 1   
     4     2     9 ar  
     5     2    12 ar  
     6     2    20 1   
     7     3     5 ar  
     8     3    13 ar  
     9     3    31 1   
    10     4    14 1   
    11     4    18 2   
    12     4    31 1   
    13     5     6 ar  
    14     5    17 1   
    15     6     7 ar  
    16     6    21 1   
    17     7     8 ar  
    18     7    22 1   
    19     8     9 1   
    20     8    13 ar  
    21     9    10 ar  
    22    10    11 ar  
    23    10    15 1   
    24    11    23 1   
    25    12    24 1   
    26    13    25 1   
    27    14    19 1   
    28    14    26 1   
    29    14    27 1   
    30    17    29 1   
    31    19    30 1   
    32    28    31 1   
@<TRIPOS>SUBSTRUCTURE
     1 D0P         1 TEMP              0 ****  ****    0 ROOT
