@<TRIPOS>MOLECULE
molecule
   67    71     1     0     0
SMALL
bcc


@<TRIPOS>ATOM
      1 C10          0.0000     0.0000     0.0000 cc         1 D0S      -0.117600
      2 N12          1.6770    -0.0070    -4.6630 nb         1 D0S      -0.712000
      3 C13          2.9110    -0.0100    -5.1440 ca         1 D0S       0.573200
      4 C15          2.0510     0.0080    -7.3890 ca         1 D0S      -0.091600
      5 C17          2.2560     0.0160    -8.8570 c          1 D0S       0.669700
      6 C20          1.3950     0.0350   -11.1370 c3         1 D0S       0.122000
      7 C21          0.0370     0.0440   -11.8410 c3         1 D0S       0.143500
      8 C24          1.3510     0.0000     0.0000 cc         1 D0S      -0.099000
      9 C26          1.0630     0.0010     2.2730 cd         1 D0S      -0.053100
     10 C01         -2.2600    -0.0000    -1.0720 cc         1 D0S      -0.310300
     11 C02         -0.8520    -0.0010    -1.2020 cc         1 D0S       0.559800
     12 C04         -1.0560    -0.0020    -3.5040 cd         1 D0S       0.444500
     13 C06         -3.0270    -0.0010    -2.1860 cd         1 D0S       0.021700
     14 C07         -0.7410     0.0040    -4.8710 cc         1 D0S      -0.395400
     15 C08         -1.9530    -0.0050    -5.5740 cc         1 D0S       0.436500
     16 C11          0.6140     0.0020    -5.4610 ca         1 D0S       0.552100
     17 C14          3.1410    -0.0020    -6.5150 ca         1 D0S      -0.199300
     18 C16          0.7650     0.0100    -6.8470 ca         1 D0S      -0.255300
     19 C23          0.2460     0.1790   -13.3500 c3         1 D0S      -0.128100
     20 C25          1.9260     0.0000     1.2510 cc         1 D0S      -0.167000
     21 C30         -2.8620    -0.0470   -11.0900 c3         1 D0S      -0.092600
     22 C31         -0.6890     3.5750   -10.8530 c3         1 D0S      -0.092600
     23 C33          3.5280    -0.0260    -2.8610 cy         1 D0S       0.110800
     24 C34          4.6330    -1.0680    -2.6110 cy         1 D0S       0.101100
     25 C35          4.5350    -1.3860    -4.1140 cy         1 D0S       0.110800
     26 N03         -0.2980    -0.0020    -2.4060 nd         1 D0S      -0.649000
     27 N05         -2.4230     0.0040    -3.4140 na         1 D0S       0.035200
     28 N09         -2.9410     0.0020    -4.7140 nd         1 D0S      -0.570100
     29 N19          1.1930     0.0260    -9.6860 ns         1 D0S      -0.569900
     30 N22         -0.7590     1.1790   -11.3540 n3         1 D0S      -0.731600
     31 N32          3.9890    -0.0200    -4.2670 nn         1 D0S      -0.633300
     32 O18          3.3820     0.0150    -9.3130 o          1 D0S      -0.608100
     33 S27         -0.5860    -0.0060     1.6590 ss         1 D0S      -0.142800
     34 H1           1.9530     0.9200   -11.4180 h1         1 D0S       0.055200
     35 H2           1.9480    -0.8490   -11.4300 h1         1 D0S       0.055200
     36 H3          -0.4850    -0.8810   -11.6300 h1         1 D0S       0.066700
     37 H4           1.9360    -0.0010    -0.9120 ha         1 D0S       0.175000
     38 H5           1.3380     0.0010     3.3210 h4         1 D0S       0.175000
     39 H6          -0.4000     2.6700   -12.7810 h1         1 D0S       0.038450
     40 H7           0.9250     2.3950   -11.6420 h1         1 D0S       0.038450
     41 H8          -2.7140     0.1590    -0.1020 ha         1 D0S       0.164000
     42 H9          -4.1070     0.0000    -2.1070 h4         1 D0S       0.179000
     43 H10         -2.0560    -0.0150    -6.6530 h4         1 D0S       0.064800
     44 H11          4.1530    -0.0040    -6.9010 ha         1 D0S       0.172000
     45 H12         -0.1040     0.0170    -7.4940 ha         1 D0S       0.132000
     46 H13          0.9200     1.0040   -13.5490 hc         1 D0S       0.043367
     47 H14         -0.7060     0.3670   -13.8310 hc         1 D0S       0.043367
     48 H15          0.6730    -0.7370   -13.7390 hc         1 D0S       0.043367
     49 H16          3.0000     0.0020     1.3970 ha         1 D0S       0.154000
     50 H17         -2.6530     2.0250   -11.6210 h1         1 D0S       0.038450
     51 H18         -2.1620     0.8950   -12.8900 h1         1 D0S       0.038450
     52 H19         -2.6670    -0.9840   -11.5970 hc         1 D0S       0.038700
     53 H20         -3.9300     0.1330   -11.0620 hc         1 D0S       0.038700
     54 H21         -2.4770    -0.0970   -10.0780 hc         1 D0S       0.038700
     55 H22         -1.4540     4.1260   -11.3850 hc         1 D0S       0.038700
     56 H23         -1.1080     3.1580    -9.9460 hc         1 D0S       0.038700
     57 H24          0.1270     4.2410   -10.6010 hc         1 D0S       0.038700
     58 H25          3.7050     0.9130    -2.3500 h1         1 D0S       0.081450
     59 H26          2.5290    -0.4280    -2.7420 h1         1 D0S       0.081450
     60 H27          4.3030    -1.8890    -1.9860 h1         1 D0S       0.041700
     61 H28          3.8130    -2.1610    -4.3390 h1         1 D0S       0.081450
     62 H29          5.5020    -1.5130    -4.5860 h1         1 D0S       0.081450
     63 H30          0.2660    -0.0220    -9.3110 hn         1 D0S       0.326500
     64 H32          6.2910    -1.0450    -1.5720 ho         1 D0S       0.398000
     65 O36          5.8850    -0.4980    -2.2240 oh         1 D0S      -0.570800
     66 C28         -0.1510     2.4570   -11.7480 c3         1 D0S       0.152800
     67 C29         -2.1480     1.0890   -11.8250 c3         1 D0S       0.152800
@<TRIPOS>BOND
     1    20     9 2
     2    20     8 1
     3     9    33 1
     4    22    66 1
     5    19     7 1
     6    30    66 1
     7    30    67 1
     8    30     7 1
     9     8     1 2
    10    67    21 1
    11    33     1 1
    12     7     6 1
    13     1    11 1
    14    11    10 1
    15    11    26 2
    16     6    29 1
    17    10    13 2
    18    26    12 1
    19    32     5 2
    20    29     5 1
    21     5     4 1
    22    13    27 1
    23    12    27 1
    24    12    14 2
    25    18     4 ar
    26    18    16 ar
    27     4    17 ar
    28    27    28 1
    29    14    16 1
    30    14    15 1
    31    16     2 ar
    32    17     3 ar
    33    28    15 2
    34     2     3 ar
    35     3    31 1
    36    31    23 1
    37    31    25 1
    38    23    24 1
    39    25    24 1
    40    24    65 1
    41     6    34 1
    42     6    35 1
    43     7    36 1
    44     8    37 1
    45     9    38 1
    46    66    39 1
    47    66    40 1
    48    10    41 1
    49    13    42 1
    50    15    43 1
    51    17    44 1
    52    18    45 1
    53    19    46 1
    54    19    47 1
    55    19    48 1
    56    20    49 1
    57    67    50 1
    58    67    51 1
    59    21    52 1
    60    21    53 1
    61    21    54 1
    62    22    55 1
    63    22    56 1
    64    22    57 1
    65    23    58 1
    66    23    59 1
    67    24    60 1
    68    25    61 1
    69    25    62 1
    70    29    63 1
    71    65    64 1
@<TRIPOS>SUBSTRUCTURE
     1 D0S         1 TEMP              0 ****  ****    0 ROOT
