@<TRIPOS>MOLECULE
D0S
   67    71     1     0     0
SMALL
bcc


@<TRIPOS>ATOM
      1 C10          0.0000     0.0000     0.0000 cc         1 D0S      -0.070600
      2 N12          1.6770    -0.0070    -4.6630 nb         1 D0S      -0.589000
      3 C13          2.9110    -0.0100    -5.1440 ca         1 D0S       0.470200
      4 C15          2.0510     0.0080    -7.3890 ca         1 D0S      -0.099600
      5 C17          2.2560     0.0160    -8.8570 c          1 D0S       0.588700
      6 C20          1.3950     0.0350   -11.1370 c3         1 D0S       0.048000
      7 C21          0.0370     0.0440   -11.8410 c3         1 D0S       0.104500
      8 C24          1.3510     0.0000     0.0000 cd         1 D0S      -0.088000
      9 C26          1.0630     0.0010     2.2730 cc         1 D0S       0.022900
     10 C01         -2.2600    -0.0000    -1.0720 cc         1 D0S      -0.236300
     11 C02         -0.8520    -0.0010    -1.2020 cc         1 D0S       0.482800
     12 C04         -1.0560    -0.0020    -3.5040 cd         1 D0S       0.221500
     13 C06         -3.0270    -0.0010    -2.1860 cd         1 D0S      -0.161300
     14 C07         -0.7410     0.0040    -4.8710 cc         1 D0S      -0.419400
     15 C08         -1.9530    -0.0050    -5.5740 cc         1 D0S       0.503500
     16 C11          0.6140     0.0020    -5.4610 ca         1 D0S       0.516100
     17 C14          3.1410    -0.0020    -6.5150 ca         1 D0S      -0.167300
     18 C16          0.7650     0.0100    -6.8470 ca         1 D0S      -0.237300
     19 C23          0.2460     0.1790   -13.3500 c3         1 D0S      -0.038100
     20 C25          1.9260     0.0000     1.2510 cd         1 D0S      -0.132000
     21 C30         -2.8620    -0.0470   -11.0900 c3         1 D0S       0.000400
     22 C31         -0.6890     3.5750   -10.8530 c3         1 D0S       0.000400
     23 C33          3.5280    -0.0260    -2.8610 cy         1 D0S       0.100300
     24 C34          4.6330    -1.0680    -2.6110 cy         1 D0S       0.149100
     25 C35          4.5350    -1.3860    -4.1140 cy         1 D0S       0.100300
     26 N03         -0.2980    -0.0020    -2.4060 nd         1 D0S      -0.504000
     27 N05         -2.4230     0.0040    -3.4140 na         1 D0S       0.537200
     28 N09         -2.9410     0.0020    -4.7140 nd         1 D0S      -0.734100
     29 N19          1.1930     0.0260    -9.6860 ns         1 D0S      -0.184900
     30 N22         -0.7590     1.1790   -11.3540 n3         1 D0S      -0.546600
     31 N32          3.9890    -0.0200    -4.2670 nn         1 D0S      -0.477300
     32 O18          3.3820     0.0150    -9.3130 o          1 D0S      -0.649100
     33 S27         -0.5860    -0.0060     1.6590 ss         1 D0S      -0.267800
     34 H1           1.9530     0.9200   -11.4180 h1         1 D0S       0.032200
     35 H2           1.9480    -0.8490   -11.4300 h1         1 D0S       0.032200
     36 H3          -0.4850    -0.8810   -11.6300 h1         1 D0S       0.042700
     37 H4           1.9360    -0.0010    -0.9120 ha         1 D0S       0.150000
     38 H5           1.3380     0.0010     3.3210 h4         1 D0S       0.150000
     39 H6          -0.4000     2.6700   -12.7810 h1         1 D0S       0.017950
     40 H7           0.9250     2.3950   -11.6420 h1         1 D0S       0.017950
     41 H8          -2.7140     0.1590    -0.1020 ha         1 D0S       0.143000
     42 H9          -4.1070     0.0000    -2.1070 h4         1 D0S       0.147000
     43 H10         -2.0560    -0.0150    -6.6530 h4         1 D0S       0.015800
     44 H11          4.1530    -0.0040    -6.9010 ha         1 D0S       0.146000
     45 H12         -0.1040     0.0170    -7.4940 ha         1 D0S       0.117000
     46 H13          0.9200     1.0040   -13.5490 hc         1 D0S       0.016033
     47 H14         -0.7060     0.3670   -13.8310 hc         1 D0S       0.016033
     48 H15          0.6730    -0.7370   -13.7390 hc         1 D0S       0.016033
     49 H16          3.0000     0.0020     1.3970 ha         1 D0S       0.124000
     50 H17         -2.6530     2.0250   -11.6210 h1         1 D0S       0.017950
     51 H18         -2.1620     0.8950   -12.8900 h1         1 D0S       0.017950
     52 H19         -2.6670    -0.9840   -11.5970 hc         1 D0S       0.006533
     53 H20         -3.9300     0.1330   -11.0620 hc         1 D0S       0.006533
     54 H21         -2.4770    -0.0970   -10.0780 hc         1 D0S       0.006533
     55 H22         -1.4540     4.1260   -11.3850 hc         1 D0S       0.006533
     56 H23         -1.1080     3.1580    -9.9460 hc         1 D0S       0.006533
     57 H24          0.1270     4.2410   -10.6010 hc         1 D0S       0.006533
     58 H25          3.7050     0.9130    -2.3500 h1         1 D0S       0.049450
     59 H26          2.5290    -0.4280    -2.7420 h1         1 D0S       0.049450
     60 H27          4.3030    -1.8890    -1.9860 h1         1 D0S       0.007700
     61 H28          3.8130    -2.1610    -4.3390 h1         1 D0S       0.049450
     62 H29          5.5020    -1.5130    -4.5860 h1         1 D0S       0.049450
     63 H30          0.2660    -0.0220    -9.3110 hn         1 D0S       0.190500
     64 H32          6.2910    -1.0450    -1.5720 ho         1 D0S       0.384000
     65 O36          5.8850    -0.4980    -2.2240 oh         1 D0S      -0.548800
     66 C28         -0.1510     2.4570   -11.7480 c3         1 D0S       0.135300
     67 C29         -2.1480     1.0890   -11.8250 c3         1 D0S       0.135300
@<TRIPOS>BOND
     1     1     8 2   
     2     1    11 1   
     3     1    33 1   
     4     2     3 ar  
     5     2    16 ar  
     6     3    17 ar  
     7     3    31 1   
     8     4     5 1   
     9     4    17 ar  
    10     4    18 ar  
    11     5    29 1   
    12     5    32 2   
    13     6     7 1   
    14     6    29 1   
    15     6    34 1   
    16     6    35 1   
    17     7    19 1   
    18     7    30 1   
    19     7    36 1   
    20     8    20 1   
    21     8    37 1   
    22     9    20 2   
    23     9    33 1   
    24     9    38 1   
    25    10    11 1   
    26    10    13 2   
    27    10    41 1   
    28    11    26 2   
    29    12    14 2   
    30    12    26 1   
    31    12    27 1   
    32    13    27 1   
    33    13    42 1   
    34    14    15 1   
    35    14    16 1   
    36    15    28 2   
    37    15    43 1   
    38    16    18 ar  
    39    17    44 1   
    40    18    45 1   
    41    19    46 1   
    42    19    47 1   
    43    19    48 1   
    44    20    49 1   
    45    21    52 1   
    46    21    53 1   
    47    21    54 1   
    48    21    67 1   
    49    22    55 1   
    50    22    56 1   
    51    22    57 1   
    52    22    66 1   
    53    23    24 1   
    54    23    31 1   
    55    23    58 1   
    56    23    59 1   
    57    24    25 1   
    58    24    60 1   
    59    24    65 1   
    60    25    31 1   
    61    25    61 1   
    62    25    62 1   
    63    27    28 1   
    64    29    63 1   
    65    30    66 1   
    66    30    67 1   
    67    39    66 1   
    68    40    66 1   
    69    50    67 1   
    70    51    67 1   
    71    64    65 1   
@<TRIPOS>SUBSTRUCTURE
     1 D0S         1 TEMP              0 ****  ****    0 ROOT
