@<TRIPOS>MOLECULE
D0T
   66    69     1     0     0
SMALL
bcc


@<TRIPOS>ATOM
      1 C1           0.0000     0.0000     0.0000 ca         1 D0T      -0.131000
      2 C2           1.3840     0.0000     0.0000 ca         1 D0T      -0.109000
      3 C3          -0.6930     0.0050     1.1940 ca         1 D0T      -0.098000
      4 C4           2.0810     0.0000     1.1950 ca         1 D0T      -0.122000
      5 C5           3.6890    -3.5800     6.2650 ca         1 D0T      -0.136000
      6 C6           3.5730    -4.8490     6.8080 ca         1 D0T      -0.151000
      7 C7           0.0050     0.0050     2.4030 ca         1 D0T      -0.098600
      8 C8           1.3510    -3.1920     6.6700 ca         1 D0T      -0.043600
      9 C9           1.4010     0.0000     2.3950 ca         1 D0T      -0.009300
     10 C10          2.5910    -2.7510     6.1960 ca         1 D0T      -0.094300
     11 C11          2.3530    -5.2990     7.2880 ca         1 D0T       0.060100
     12 C12          1.2370    -4.4740     7.2240 ca         1 D0T       0.078100
     13 C13         -0.7310     0.0110     3.6840 c          1 D0T       0.566700
     14 C15          1.8470   -10.6390     9.1120 c          1 D0T       0.983600
     15 C16         -7.0100     0.0360     4.2010 ca         1 D0T      -0.121000
     16 C17         -6.3290     1.2310     4.3330 ca         1 D0T      -0.118500
     17 C18         -6.3330    -1.1630     4.3170 ca         1 D0T      -0.118500
     18 C19         -4.9680     1.2260     4.5770 ca         1 D0T      -0.085500
     19 C20         -4.9740    -1.1680     4.5660 ca         1 D0T      -0.085500
     20 C21          0.0360    -6.0290     8.5610 c3         1 D0T       0.160400
     21 C22         -4.2900     0.0280     4.6880 ca         1 D0T      -0.089300
     22 C23          0.9520    -7.1010     7.9540 c3         1 D0T       0.126100
     23 C24          2.1640     0.0000     3.6950 c3         1 D0T       0.173100
     24 C25          2.7270    -1.3680     5.6110 c3         1 D0T       0.207100
     25 C26          2.9890    -2.2530     3.3730 c3         1 D0T       0.149100
     26 C28         -2.8070     0.0220     4.9590 c3         1 D0T       0.083300
     27 C29          0.9940    -8.3230     8.8730 c3         1 D0T      -0.014400
     28 N1          -2.0790     0.0170     3.6880 ns         1 D0T      -0.203900
     29 N2           2.2030    -1.3640     4.2400 n3         1 D0T      -0.469600
     30 O1          -0.6010    -2.4020     5.6680 o          1 D0T      -0.892800
     31 O2           2.5080   -11.7430     8.7310 o          1 D0T      -0.915800
     32 O3          -0.1200     0.0120     4.7350 o          1 D0T      -0.533100
     33 O4          -0.0420    -1.3940     7.5660 o          1 D0T      -0.892800
     34 O5           1.2850   -10.6100    10.1810 o          1 D0T      -0.915800
     35 O6           0.0300    -4.8970     7.6830 os         1 D0T      -0.273900
     36 O7           2.2650    -6.5480     7.8240 os         1 D0T      -0.296900
     37 H1          -0.5410     0.0000    -0.9390 ha         1 D0T       0.088000
     38 H2           1.9230    -0.0020    -0.9390 ha         1 D0T       0.086000
     39 H3          -1.7760     0.0070     1.1930 ha         1 D0T       0.100000
     40 H4           3.1640    -0.0020     1.1880 ha         1 D0T       0.101000
     41 H5           4.6480    -3.2360     5.8970 ha         1 D0T       0.083000
     42 H6           4.4420    -5.4950     6.8580 ha         1 D0T       0.098000
     43 H7          -8.0760     0.0390     4.0080 ha         1 D0T       0.088000
     44 H8          -6.8600     2.1700     4.2440 ha         1 D0T       0.093000
     45 H9          -6.8680    -2.1000     4.2180 ha         1 D0T       0.093000
     46 H10         -4.4320     2.1620     4.6760 ha         1 D0T       0.117500
     47 H11         -4.4430    -2.1080     4.6560 ha         1 D0T       0.117500
     48 H12          0.4140    -5.7340     9.5320 h1         1 D0T       0.016700
     49 H13         -0.9690    -6.4200     8.6570 h1         1 D0T       0.016700
     50 H14          0.5790    -7.3850     6.9770 h1         1 D0T       0.021700
     51 H15          3.1740     0.3490     3.5200 h1         1 D0T       0.025200
     52 H16          1.6720     0.6580     4.4020 h1         1 D0T       0.025200
     53 H17          3.7710    -1.0820     5.6000 h1         1 D0T       0.018700
     54 H18          2.1660    -0.6640     6.2140 h1         1 D0T       0.018700
     55 H19          2.9860    -3.2550     3.7850 h1         1 D0T      -0.001967
     56 H20          4.0090    -1.8910     3.3130 h1         1 D0T      -0.001967
     57 H21          2.5530    -2.2690     2.3810 h1         1 D0T      -0.001967
     58 H22          2.8150    -9.0860     8.0230 hc         1 D0T       0.012200
     59 H23          1.3420    -9.7070     7.2660 hc         1 D0T       0.012200
     60 H24         -2.5470    -0.8620     5.5280 h1         1 D0T       0.065200
     61 H25         -2.5400     0.9070     5.5250 h1         1 D0T       0.065200
     62 H26         -0.0150    -8.6720     9.0560 hc         1 D0T       0.027200
     63 H27          1.4580    -8.0510     9.8140 hc         1 D0T       0.027200
     64 H28         -2.5810     0.0560     2.8240 hn         1 D0T       0.155500
     65 C27          1.8060    -9.4350     8.2060 c3         1 D0T      -0.134400
     66 C14          0.1750    -2.3080     6.5990 c          1 D0T       1.001200
@<TRIPOS>BOND
     1     1     2 ar  
     2     1     3 ar  
     3     1    37 1   
     4     2     4 ar  
     5     2    38 1   
     6     3     7 ar  
     7     3    39 1   
     8     4     9 ar  
     9     4    40 1   
    10     5     6 ar  
    11     5    10 ar  
    12     5    41 1   
    13     6    11 ar  
    14     6    42 1   
    15     7     9 ar  
    16     7    13 1   
    17     8    10 ar  
    18     8    12 ar  
    19     8    66 1   
    20     9    23 1   
    21    10    24 1   
    22    11    12 ar  
    23    11    36 1   
    24    12    35 1   
    25    13    28 1   
    26    13    32 2   
    27    14    31 1   
    28    14    34 1   
    29    14    65 1   
    30    15    16 ar  
    31    15    17 ar  
    32    15    43 1   
    33    16    18 ar  
    34    16    44 1   
    35    17    19 ar  
    36    17    45 1   
    37    18    21 ar  
    38    18    46 1   
    39    19    21 ar  
    40    19    47 1   
    41    20    22 1   
    42    20    35 1   
    43    20    48 1   
    44    20    49 1   
    45    21    26 1   
    46    22    27 1   
    47    22    36 1   
    48    22    50 1   
    49    23    29 1   
    50    23    51 1   
    51    23    52 1   
    52    24    29 1   
    53    24    53 1   
    54    24    54 1   
    55    25    29 1   
    56    25    55 1   
    57    25    56 1   
    58    25    57 1   
    59    26    28 1   
    60    26    60 1   
    61    26    61 1   
    62    27    62 1   
    63    27    63 1   
    64    27    65 1   
    65    28    64 1   
    66    30    66 1   
    67    33    66 1   
    68    58    65 1   
    69    59    65 1   
@<TRIPOS>SUBSTRUCTURE
     1 D0T         1 TEMP              0 ****  ****    0 ROOT
