@<TRIPOS>MOLECULE
molecule
   54    58     1     0     0
SMALL
bcc


@<TRIPOS>ATOM
      1 C4           0.0000     0.0000     0.0000 ce         1 D0V      -0.182600
      2 C6          -0.4950    -2.0490    -1.7790 ca         1 D0V       0.042900
      3 C11          0.5520    -4.0920    -1.0860 ca         1 D0V      -0.115000
      4 C7          -0.9170    -2.6650    -2.9520 ca         1 D0V       0.035400
      5 C9          -0.6010    -3.9910    -3.1850 ca         1 D0V      -0.109000
      6 C10          0.1310    -4.7030    -2.2530 ca         1 D0V      -0.134000
      7 C12          0.2420    -2.7690    -0.8460 ca         1 D0V      -0.119000
      8 C13          1.4660     0.0000     0.0000 c          1 D0V       0.718700
      9 C3           0.1010     0.6340     2.3880 c3         1 D0V      -0.060200
     10 C2          -0.6640     0.2800     1.1380 c2         1 D0V       0.206900
     11 S5          -0.8870    -0.3570    -1.4800 ss         1 D0V      -0.131500
     12 Cl8         -1.8360    -1.7720    -4.1220 cl         1 D0V      -0.099400
     13 N14          2.1340     0.0000     1.1680 ns         1 D0V      -0.577900
     14 C15          1.4160    -0.1410     2.4350 c3         1 D0V       0.153400
     15 C16          2.2700     0.3950     3.5550 cc         1 D0V      -0.124300
     16 C17          1.7510     0.9190     4.6660 cd         1 D0V      -0.060100
     17 S18          3.0470     1.4330     5.7380 ss         1 D0V      -0.135800
     18 C19          4.2580     0.8920     4.5820 cd         1 D0V      -0.062100
     19 C20          3.6540     0.3750     3.5110 cc         1 D0V      -0.157000
     20 C21          1.1270    -1.5980     2.6860 ca         1 D0V       0.444600
     21 N22         -0.1220    -2.0020     2.8170 nb         1 D0V      -0.747000
     22 C23         -0.4230    -3.2730     3.0380 ca         1 D0V       0.700200
     23 N24         -1.7530    -3.6540     3.1710 nu         1 D0V      -0.772300
     24 C25         -2.7600    -2.6820     3.1900 ca         1 D0V       0.151600
     25 C26         -4.0040    -2.9590     2.6400 ca         1 D0V      -0.120500
     26 C27         -4.9980    -1.9990     2.6600 ca         1 D0V      -0.144500
     27 C28         -4.7530    -0.7610     3.2290 ca         1 D0V       0.110900
     28 F29         -5.7250     0.1760     3.2490 f          1 D0V      -0.146900
     29 C30         -3.5120    -0.4830     3.7800 ca         1 D0V      -0.144500
     30 C31         -2.5190    -1.4420     3.7670 ca         1 D0V      -0.120500
     31 C32          0.5820    -4.2300     3.1380 ca         1 D0V      -0.307300
     32 C33          1.9020    -3.8370     3.0050 ca         1 D0V      -0.054000
     33 C34          2.1730    -2.4960     2.7680 ca         1 D0V      -0.277300
     34 O35          2.0760     0.0000    -1.0530 o          1 D0V      -0.615500
     35 H1           1.1260    -4.6540    -0.3590 ha         1 D0V       0.130000
     36 H2          -0.9290    -4.4730    -4.0980 ha         1 D0V       0.143000
     37 H3           0.3770    -5.7410    -2.4380 ha         1 D0V       0.132000
     38 H4           0.5720    -2.2920     0.0690 ha         1 D0V       0.144000
     39 H5          -0.4960     0.3790     3.2550 hc         1 D0V       0.083700
     40 H6           0.3110     1.6960     2.3890 hc         1 D0V       0.083700
     41 H7          -2.3550     0.9960     0.7020 ho         1 D0V       0.438000
     42 H8           3.1300     0.0980     1.1700 hn         1 D0V       0.335500
     43 H9           0.6920     1.0130     4.8760 h4         1 D0V       0.177000
     44 H10          5.3300     0.9620     4.7220 h4         1 D0V       0.177000
     45 H11          4.2040    -0.0240     2.6680 ha         1 D0V       0.149000
     46 H12         -1.9880    -4.6200     3.2890 hn         1 D0V       0.457800
     47 H13         -4.1960    -3.9280     2.1940 ha         1 D0V       0.144500
     48 H14         -5.9680    -2.2160     2.2300 ha         1 D0V       0.141500
     49 H15         -3.3240     0.4860     4.2270 ha         1 D0V       0.141500
     50 H16         -1.5490    -1.2240     4.1970 ha         1 D0V       0.144500
     51 H17          0.3340    -5.2680     3.3210 ha         1 D0V       0.139000
     52 H18          2.7050    -4.5610     3.0760 ha         1 D0V       0.142000
     53 H19          3.1960    -2.1560     2.6590 ha         1 D0V       0.142000
     54 O1          -2.0140     0.2460     1.1590 oh         1 D0V      -0.494100
@<TRIPOS>BOND
     1    26    25 ar
     2    26    27 ar
     3    28    27 1
     4    25    24 ar
     5    27    29 ar
     6     5     6 ar
     7     5     4 ar
     8     6     3 ar
     9    24    23 1
    10    24    30 ar
    11    29    30 ar
    12    12     4 1
    13     4     2 ar
    14    54    10 1
    15     3     7 ar
    16    23    22 1
    17     2     7 ar
    18     2    11 1
    19    11     1 1
    20    10     1 2
    21    10     9 1
    22    22    31 ar
    23    22    21 ar
    24    31    32 ar
    25    21    20 ar
    26     1     8 1
    27     9    14 1
    28    32    33 ar
    29    20    14 1
    30    20    33 ar
    31    14    13 1
    32    14    15 1
    33     8    34 2
    34     8    13 1
    35    15    19 1
    36    15    16 2
    37    19    18 2
    38    16    17 1
    39    18    17 1
    40     3    35 1
    41     5    36 1
    42     6    37 1
    43     7    38 1
    44     9    39 1
    45     9    40 1
    46    54    41 1
    47    13    42 1
    48    16    43 1
    49    18    44 1
    50    19    45 1
    51    23    46 1
    52    25    47 1
    53    26    48 1
    54    29    49 1
    55    30    50 1
    56    31    51 1
    57    32    52 1
    58    33    53 1
@<TRIPOS>SUBSTRUCTURE
     1 D0V         1 TEMP              0 ****  ****    0 ROOT
