@<TRIPOS>MOLECULE
D0V
   54    58     1     0     0
SMALL
bcc


@<TRIPOS>ATOM
      1 C4           0.0000     0.0000     0.0000 ce         1 D0V      -0.166600
      2 C6          -0.4950    -2.0490    -1.7790 ca         1 D0V       0.089900
      3 C11          0.5520    -4.0920    -1.0860 ca         1 D0V      -0.091000
      4 C7          -0.9170    -2.6650    -2.9520 ca         1 D0V      -0.018600
      5 C9          -0.6010    -3.9910    -3.1850 ca         1 D0V      -0.090000
      6 C10          0.1310    -4.7030    -2.2530 ca         1 D0V      -0.101000
      7 C12          0.2420    -2.7690    -0.8460 ca         1 D0V      -0.108000
      8 C13          1.4660     0.0000     0.0000 c          1 D0V       0.647700
      9 C3           0.1010     0.6340     2.3880 c3         1 D0V      -0.021200
     10 C2          -0.6640     0.2800     1.1380 c2         1 D0V       0.233900
     11 S5          -0.8870    -0.3570    -1.4800 ss         1 D0V      -0.260500
     12 Cl8         -1.8360    -1.7720    -4.1220 cl         1 D0V      -0.002400
     13 N14          2.1340     0.0000     1.1680 ns         1 D0V      -0.202900
     14 C15          1.4160    -0.1410     2.4350 c3         1 D0V       0.049400
     15 C16          2.2700     0.3950     3.5550 cc         1 D0V      -0.132300
     16 C17          1.7510     0.9190     4.6660 cd         1 D0V       0.015900
     17 S18          3.0470     1.4330     5.7380 ss         1 D0V      -0.258800
     18 C19          4.2580     0.8920     4.5820 cd         1 D0V       0.022900
     19 C20          3.6540     0.3750     3.5110 cc         1 D0V      -0.135000
     20 C21          1.1270    -1.5980     2.6860 ca         1 D0V       0.385600
     21 N22         -0.1220    -2.0020     2.8170 nb         1 D0V      -0.625000
     22 C23         -0.4230    -3.2730     3.0380 ca         1 D0V       0.502200
     23 N24         -1.7530    -3.6540     3.1710 nu         1 D0V      -0.308300
     24 C25         -2.7600    -2.6820     3.1900 ca         1 D0V      -0.002400
     25 C26         -4.0040    -2.9590     2.6400 ca         1 D0V      -0.098500
     26 C27         -4.9980    -1.9990     2.6600 ca         1 D0V      -0.107000
     27 C28         -4.7530    -0.7610     3.2290 ca         1 D0V       0.084900
     28 F29         -5.7250     0.1760     3.2490 f          1 D0V      -0.131900
     29 C30         -3.5120    -0.4830     3.7800 ca         1 D0V      -0.107000
     30 C31         -2.5190    -1.4420     3.7670 ca         1 D0V      -0.098500
     31 C32          0.5820    -4.2300     3.1380 ca         1 D0V      -0.286300
     32 C33          1.9020    -3.8370     3.0050 ca         1 D0V      -0.015000
     33 C34          2.1730    -2.4960     2.7680 ca         1 D0V      -0.259300
     34 O35          2.0760     0.0000    -1.0530 o          1 D0V      -0.651500
     35 H1           1.1260    -4.6540    -0.3590 ha         1 D0V       0.101000
     36 H2          -0.9290    -4.4730    -4.0980 ha         1 D0V       0.114000
     37 H3           0.3770    -5.7410    -2.4380 ha         1 D0V       0.103000
     38 H4           0.5720    -2.2920     0.0690 ha         1 D0V       0.122000
     39 H5          -0.4960     0.3790     3.2550 hc         1 D0V       0.055200
     40 H6           0.3110     1.6960     2.3890 hc         1 D0V       0.055200
     41 H7          -2.3550     0.9960     0.7020 ho         1 D0V       0.423000
     42 H8           3.1300     0.0980     1.1700 hn         1 D0V       0.199500
     43 H9           0.6920     1.0130     4.8760 h4         1 D0V       0.157000
     44 H10          5.3300     0.9620     4.7220 h4         1 D0V       0.152000
     45 H11          4.2040    -0.0240     2.6680 ha         1 D0V       0.129000
     46 H12         -1.9880    -4.6200     3.2890 hn         1 D0V       0.289800
     47 H13         -4.1960    -3.9280     2.1940 ha         1 D0V       0.120000
     48 H14         -5.9680    -2.2160     2.2300 ha         1 D0V       0.115000
     49 H15         -3.3240     0.4860     4.2270 ha         1 D0V       0.115000
     50 H16         -1.5490    -1.2240     4.1970 ha         1 D0V       0.120000
     51 H17          0.3340    -5.2680     3.3210 ha         1 D0V       0.120000
     52 H18          2.7050    -4.5610     3.0760 ha         1 D0V       0.109000
     53 H19          3.1960    -2.1560     2.6590 ha         1 D0V       0.123000
     54 O1          -2.0140     0.2460     1.1590 oh         1 D0V      -0.476100
@<TRIPOS>BOND
     1     1     8 1   
     2     1    10 2   
     3     1    11 1   
     4     2     4 ar  
     5     2     7 ar  
     6     2    11 1   
     7     3     6 ar  
     8     3     7 ar  
     9     3    35 1   
    10     4     5 ar  
    11     4    12 1   
    12     5     6 ar  
    13     5    36 1   
    14     6    37 1   
    15     7    38 1   
    16     8    13 1   
    17     8    34 2   
    18     9    10 1   
    19     9    14 1   
    20     9    39 1   
    21     9    40 1   
    22    10    54 1   
    23    13    14 1   
    24    13    42 1   
    25    14    15 1   
    26    14    20 1   
    27    15    16 2   
    28    15    19 1   
    29    16    17 1   
    30    16    43 1   
    31    17    18 1   
    32    18    19 2   
    33    18    44 1   
    34    19    45 1   
    35    20    21 ar  
    36    20    33 ar  
    37    21    22 ar  
    38    22    23 1   
    39    22    31 ar  
    40    23    24 1   
    41    23    46 1   
    42    24    25 ar  
    43    24    30 ar  
    44    25    26 ar  
    45    25    47 1   
    46    26    27 ar  
    47    26    48 1   
    48    27    28 1   
    49    27    29 ar  
    50    29    30 ar  
    51    29    49 1   
    52    30    50 1   
    53    31    32 ar  
    54    31    51 1   
    55    32    33 ar  
    56    32    52 1   
    57    33    53 1   
    58    41    54 1   
@<TRIPOS>SUBSTRUCTURE
     1 D0V         1 TEMP              0 ****  ****    0 ROOT
