@<TRIPOS>MOLECULE
molecule
   68    69     1     0     0
SMALL
bcc


@<TRIPOS>ATOM
      1 C10          0.0000     0.0000     0.0000 c          1 D0W       0.643100
      2 N12         -0.6740    -1.0130     0.5790 ns         1 D0W      -0.540900
      3 C13         -2.1390    -1.0170     0.5730 c3         1 D0W       0.142000
      4 C15         -4.1730    -2.3360     1.1750 c3         1 D0W      -0.034400
      5 C17         -6.2050    -3.7550     1.6600 c3         1 D0W      -0.069900
      6 C20         -4.4730    -3.5650     3.3690 c3         1 D0W      -0.069900
      7 C21         -3.9740    -4.8220     1.2530 c          1 D0W       0.684100
      8 C24         -3.3530    -6.2180    -0.6450 c3         1 D0W       0.014700
      9 C26         -5.3910    -7.4070    -1.4080 ca         1 D0W      -0.042300
     10 C28         -7.7290    -7.2210    -0.9260 ca         1 D0W      -0.156000
     11 C01          2.7820     2.3680    -2.7230 c3         1 D0W      -0.173100
     12 C02          2.1730     1.1770    -2.0270 c          1 D0W       0.668100
     13 C05          1.5070     0.0000     0.0000 c3         1 D0W       0.058700
     14 C06          2.0170     0.0000     1.4420 c3         1 D0W      -0.197400
     15 C07          3.5080    -0.2210     1.4490 c          1 D0W       0.893600
     16 C14         -2.6500    -2.2690     1.2900 c3         1 D0W      -0.208700
     17 C16         -4.6780    -3.6220     1.8340 c3         1 D0W      -0.125000
     18 C18         -6.7450    -4.3580     2.9680 c3         1 D0W      -0.089900
     19 C19         -5.5280    -4.5720     3.8910 c3         1 D0W      -0.089900
     20 C25         -4.0990    -6.7750    -1.8580 c3         1 D0W      -0.043100
     21 C27         -6.5440    -6.6460    -1.3380 ca         1 D0W      -0.117000
     22 C29         -7.7640    -8.5660    -0.5820 ca         1 D0W       0.055100
     23 C30         -6.6080    -9.3290    -0.6640 ca         1 D0W      -0.156000
     24 C31         -5.4240    -8.7470    -1.0710 ca         1 D0W      -0.117000
     25 C33         -2.0070    -5.6980    -1.0770 c          1 D0W       0.881600
     26 C36         -2.2560    -2.2100     2.7430 c          1 D0W       0.895600
     27 N04          1.9950     1.1960    -0.6920 ns         1 D0W      -0.516900
     28 N23         -4.1300    -5.1280    -0.0500 ns         1 D0W      -0.570900
     29 O03          1.8450     0.2020    -2.6690 o          1 D0W      -0.627100
     30 O08          4.1650    -0.3270     2.6130 o          1 D0W      -0.866300
     31 O09          4.1100    -0.3020     0.4050 o          1 D0W      -0.866300
     32 O11         -0.6070     0.9100    -0.5260 o          1 D0W      -0.693100
     33 O22         -3.2670    -5.5100     1.9570 o          1 D0W      -0.590100
     34 O32         -8.9290    -9.1350    -0.1760 oh         1 D0W      -0.532100
     35 O34         -1.1200    -6.5260    -1.6520 o          1 D0W      -0.827800
     36 O35         -1.7260    -4.5350    -0.9070 o          1 D0W      -0.827800
     37 O37         -1.3100    -3.0360     3.2170 o          1 D0W      -0.858800
     38 O38         -2.7930    -1.4210     3.4830 o          1 D0W      -0.858800
     39 H121        -0.1740    -1.7800     0.9830 hn         1 D0W       0.354500
     40 H131        -2.5040    -0.1340     1.0840 h1         1 D0W       0.024200
     41 H132        -2.4950    -1.0160    -0.4500 h1         1 D0W       0.024200
     42 H151        -4.4570    -2.3300     0.1300 hc         1 D0W       0.021700
     43 H152        -4.6110    -1.4790     1.6730 hc         1 D0W       0.021700
     44 H172        -6.6440    -2.7790     1.4940 hc         1 D0W       0.063700
     45 H171        -6.4260    -4.4140     0.8290 hc         1 D0W       0.063700
     46 H202        -4.6770    -2.5690     3.7450 hc         1 D0W       0.063700
     47 H201        -3.4730    -3.8870     3.6340 hc         1 D0W       0.063700
     48 H241        -3.2170    -7.0050     0.0870 h1         1 D0W       0.073700
     49 H281        -8.6310    -6.6240    -0.8670 ha         1 D0W       0.117500
     50 H011         3.8100     2.4860    -2.4030 hc         1 D0W       0.037367
     51 H012         2.7530     2.2140    -3.7950 hc         1 D0W       0.037367
     52 H013         2.2200     3.2590    -2.4700 hc         1 D0W       0.037367
     53 H051         1.8670    -0.8850    -0.5100 h1         1 D0W       0.116700
     54 H061         1.7910     0.9530     1.9050 hc         1 D0W       0.056700
     55 H062         1.5320    -0.7940     1.9960 hc         1 D0W       0.056700
     56 H141        -2.2140    -3.1490     0.8330 hc         1 D0W       0.120700
     57 H181        -7.4440    -3.6720     3.4310 hc         1 D0W       0.021450
     58 H182        -7.2270    -5.3080     2.7660 hc         1 D0W       0.021450
     59 H192        -5.1590    -5.5870     3.8000 hc         1 D0W       0.021450
     60 H191        -5.7890    -4.3470     4.9180 hc         1 D0W       0.021450
     61 H252        -4.3130    -5.9700    -2.5510 hc         1 D0W       0.058200
     62 H251        -3.4850    -7.5200    -2.3490 hc         1 D0W       0.058200
     63 H271        -6.5170    -5.5970    -1.6060 ha         1 D0W       0.138500
     64 H301        -6.6320   -10.3790    -0.3980 ha         1 D0W       0.117500
     65 H311        -4.5220    -9.3430    -1.1340 ha         1 D0W       0.138500
     66 H041         2.1720     2.0350    -0.1760 hn         1 D0W       0.299500
     67 H231        -4.7440    -4.5820    -0.6220 hn         1 D0W       0.285500
     68 H321        -9.3910    -9.4740    -0.9240 ho         1 D0W       0.390000
@<TRIPOS>BOND
     1    36    25 1
     2    24    23 ar
     3    24     9 ar
     4    20     9 1
     5    20     8 1
     6    25    35 1
     7    25     8 1
     8    23    22 ar
     9     9    21 ar
    10     8    28 1
    11    22    34 1
    12    22    10 ar
    13    21    10 ar
    14    28     7 1
    15    33     7 2
    16     7    17 1
    17     5    18 1
    18     5    17 1
    19    19    18 1
    20    19     6 1
    21    17     6 1
    22    17     4 1
    23     4    16 1
    24    38    26 1
    25    16    26 1
    26    16     3 1
    27    26    37 1
    28     3     2 1
    29     2     1 1
    30     1    32 2
    31     1    13 1
    32    13    14 1
    33    13    27 1
    34    14    15 1
    35    31    15 1
    36    29    12 2
    37    15    30 1
    38    27    12 1
    39    12    11 1
    40     2    39 1
    41     3    40 1
    42     3    41 1
    43     4    42 1
    44     4    43 1
    45     5    44 1
    46     5    45 1
    47     6    46 1
    48     6    47 1
    49     8    48 1
    50    10    49 1
    51    11    50 1
    52    11    51 1
    53    11    52 1
    54    13    53 1
    55    14    54 1
    56    14    55 1
    57    16    56 1
    58    18    57 1
    59    18    58 1
    60    19    59 1
    61    19    60 1
    62    20    61 1
    63    20    62 1
    64    21    63 1
    65    23    64 1
    66    24    65 1
    67    27    66 1
    68    28    67 1
    69    34    68 1
@<TRIPOS>SUBSTRUCTURE
     1 D0W         1 TEMP              0 ****  ****    0 ROOT
