@<TRIPOS>MOLECULE
D0Y
   54    58     1     0     0
SMALL
bcc


@<TRIPOS>ATOM
      1 C4           0.0000     0.0000     0.0000 ce         1 D0Y      -0.160600
      2 C6          -0.4830     1.9290    -1.9100 ca         1 D0Y       0.064900
      3 C11         -0.9010     2.4690    -3.1230 ca         1 D0Y      -0.016600
      4 C7           0.2490     2.7090    -1.0220 ca         1 D0Y      -0.112000
      5 C8           0.5650     4.0130    -1.3480 ca         1 D0Y      -0.085000
      6 C9           0.1520     4.5450    -2.5560 ca         1 D0Y      -0.095000
      7 C10         -0.5860     3.7770    -3.4390 ca         1 D0Y      -0.088000
      8 C13          1.4680     0.0000     0.0000 c          1 D0Y       0.810800
      9 C3           0.0710    -0.4070     2.4520 c3         1 D0Y      -0.064200
     10 C2          -0.6630    -0.1980     1.1550 c2         1 D0Y       0.211900
     11 S5          -0.8880     0.2650    -1.4980 ss         1 D0Y      -0.232500
     12 Cl12        -1.8160     1.5010    -4.2350 cl         1 D0Y       0.004600
     13 O14          2.0970     0.0000     1.2040 os         1 D0Y      -0.400900
     14 C15          1.5040    -0.8680     2.1800 c3         1 D0Y       0.323400
     15 C16          1.4880    -2.2810     1.6580 cc         1 D0Y      -0.168300
     16 C17          0.5430    -3.1610     1.9930 cd         1 D0Y       0.013900
     17 S18          0.8540    -4.6960     1.1930 ss         1 D0Y      -0.261800
     18 C19          2.2940    -4.0380     0.4260 cd         1 D0Y       0.021900
     19 C20          2.4520    -2.7640     0.7880 cc         1 D0Y      -0.115000
     20 C21          2.3030    -0.8090     3.4580 ca         1 D0Y      -0.065300
     21 C22          3.6610    -0.5650     3.4110 ca         1 D0Y      -0.125000
     22 C23          4.3960    -0.5110     4.5880 ca         1 D0Y       0.026600
     23 N24          5.7710    -0.2640     4.5440 nu         1 D0Y      -0.223000
     24 C25          6.6030    -0.7590     5.5530 ca         1 D0Y       0.012600
     25 C26          6.2470    -1.9110     6.2440 ca         1 D0Y      -0.136000
     26 C27          7.0740    -2.4030     7.2350 ca         1 D0Y      -0.095500
     27 C28          8.2560    -1.7490     7.5410 ca         1 D0Y       0.067900
     28 F29          9.0630    -2.2310     8.5110 f          1 D0Y      -0.128900
     29 C30          8.6120    -0.6000     6.8530 ca         1 D0Y      -0.095500
     30 C31          7.7890    -0.1060     5.8610 ca         1 D0Y      -0.136000
     31 C32          3.7620    -0.7030     5.8090 ca         1 D0Y      -0.158000
     32 C33          2.4040    -0.9460     5.8490 ca         1 D0Y      -0.060000
     33 C34          1.6730    -0.9940     4.6750 ca         1 D0Y      -0.141000
     34 O35          2.0990     0.0000    -1.0410 o          1 D0Y      -0.574500
     35 H1           0.5750     2.2930    -0.0770 ha         1 D0Y       0.113000
     36 H2           1.1390     4.6190    -0.6580 ha         1 D0Y       0.105000
     37 H3           0.3990     5.5690    -2.8080 ha         1 D0Y       0.106000
     38 H4          -0.9090     4.1990    -4.3830 ha         1 D0Y       0.115000
     39 H5          -0.4430    -1.1610     3.0350 hc         1 D0Y       0.057200
     40 H6           0.0940     0.5260     3.0020 hc         1 D0Y       0.057200
     41 H7          -2.3370     0.6040     1.5000 ho         1 D0Y       0.418000
     42 H8          -0.2900    -2.9600     2.6560 h4         1 D0Y       0.154000
     43 H9           2.9490    -4.5830    -0.2430 h4         1 D0Y       0.152000
     44 H10          3.2760    -2.1560     0.4350 ha         1 D0Y       0.141000
     45 H11          4.1400    -0.3500     2.4630 ha         1 D0Y       0.128000
     46 H12          6.1600     0.2690     3.7910 hn         1 D0Y       0.289800
     47 H13          5.3230    -2.4240     6.0060 ha         1 D0Y       0.122000
     48 H14          6.7970    -3.3010     7.7750 ha         1 D0Y       0.118000
     49 H15          9.5370    -0.0900     7.0940 ha         1 D0Y       0.118000
     50 H16          8.0680     0.7920     5.3240 ha         1 D0Y       0.122000
     51 H17          4.3330    -0.6630     6.7290 ha         1 D0Y       0.129000
     52 H18          1.9080    -1.0940     6.8000 ha         1 D0Y       0.105000
     53 H19          0.6070    -1.1860     4.7090 ha         1 D0Y       0.109000
     54 O1          -2.0140    -0.2100     1.1500 oh         1 D0Y      -0.477100
@<TRIPOS>BOND
     1     1     8 1   
     2     1    10 2   
     3     1    11 1   
     4     2     3 ar  
     5     2     4 ar  
     6     2    11 1   
     7     3     7 ar  
     8     3    12 1   
     9     4     5 ar  
    10     4    35 1   
    11     5     6 ar  
    12     5    36 1   
    13     6     7 ar  
    14     6    37 1   
    15     7    38 1   
    16     8    13 1   
    17     8    34 2   
    18     9    10 1   
    19     9    14 1   
    20     9    39 1   
    21     9    40 1   
    22    10    54 1   
    23    13    14 1   
    24    14    15 1   
    25    14    20 1   
    26    15    16 2   
    27    15    19 1   
    28    16    17 1   
    29    16    42 1   
    30    17    18 1   
    31    18    19 2   
    32    18    43 1   
    33    19    44 1   
    34    20    21 ar  
    35    20    33 ar  
    36    21    22 ar  
    37    21    45 1   
    38    22    23 1   
    39    22    31 ar  
    40    23    24 1   
    41    23    46 1   
    42    24    25 ar  
    43    24    30 ar  
    44    25    26 ar  
    45    25    47 1   
    46    26    27 ar  
    47    26    48 1   
    48    27    28 1   
    49    27    29 ar  
    50    29    30 ar  
    51    29    49 1   
    52    30    50 1   
    53    31    32 ar  
    54    31    51 1   
    55    32    33 ar  
    56    32    52 1   
    57    33    53 1   
    58    41    54 1   
@<TRIPOS>SUBSTRUCTURE
     1 D0Y         1 TEMP              0 ****  ****    0 ROOT
