@<TRIPOS>MOLECULE
D0Z
   79    80     1     0     0
SMALL
bcc


@<TRIPOS>ATOM
      1 C01          0.0000     0.0000     0.0000 c3         1 D0Z      -0.007300
      2 C06          1.8850     2.6980     0.1630 c3         1 D0Z       0.122500
      3 C07          2.9980     3.7360    -0.0040 c3         1 D0Z      -0.051400
      4 C08          4.3060     3.1750     0.5550 c3         1 D0Z       0.019600
      5 C09          5.3880     4.2560     0.5020 c3         1 D0Z      -0.232400
      6 C10          6.6980     3.6950     1.0630 c3         1 D0Z       0.004800
      7 C12          0.5890     3.2650    -0.3550 c          1 D0Z       0.514100
      8 C15         -1.3910     4.6600    -0.0930 c3         1 D0Z      -0.016000
      9 C16         -2.0030     5.5830     0.9630 c3         1 D0Z      -0.174700
     10 C17         -3.5180     5.6500     0.7670 c3         1 D0Z       0.024600
     11 C18         -3.8290     6.0760    -0.6710 c3         1 D0Z      -0.126000
     12 C19         -5.3510     6.2140    -0.8760 c3         1 D0Z      -0.047400
     13 C20         -5.6520     5.6940    -2.2930 c3         1 D0Z      -0.039400
     14 C21         -4.3020     5.2590    -2.8990 c3         1 D0Z      -0.039400
     15 C22         -3.4100     4.9670    -1.6670 c3         1 D0Z      -0.047400
     16 C23         -3.1330     7.3720    -0.9970 c          1 D0Z       0.541100
     17 C26         -1.9680     8.8270    -2.5660 c3         1 D0Z      -0.090300
     18 C27         -1.2200     8.6070    -3.8810 c3         1 D0Z       0.028900
     19 C28         -0.2450     7.4690    -3.7190 ca         1 D0Z      -0.077300
     20 C29          1.0450     7.7210    -3.2890 ca         1 D0Z      -0.060500
     21 C30          1.9400     6.6800    -3.1390 ca         1 D0Z      -0.162000
     22 C31          1.5440     5.3800    -3.4220 ca         1 D0Z       0.107100
     23 C32          0.2500     5.1300    -3.8550 ca         1 D0Z      -0.162000
     24 C33         -0.6430     6.1740    -3.9970 ca         1 D0Z      -0.060500
     25 C35         -2.8540    10.0420    -2.6890 c          1 D0Z       0.984600
     26 C38         -1.4170     6.9650     0.8230 c          1 D0Z       0.988600
     27 N05          2.2270     1.4900    -0.5920 n7         1 D0Z      -0.565100
     28 N11          7.7360     4.7320     1.0110 nz         1 D0Z       0.030400
     29 N25         -2.7910     7.6520    -2.2690 ns         1 D0Z      -0.188900
     30 O24         -2.8800     8.1640    -0.1130 o          1 D0Z      -0.511100
     31 O34          2.4230     4.3540    -3.2760 oh         1 D0Z      -0.532100
     32 O39         -1.7380     7.9230     1.7050 o          1 D0Z      -0.864800
     33 O40         -0.6580     7.2090    -0.0860 o          1 D0Z      -0.864800
     34 S02          1.8130     0.0000     0.0000 s6         1 D0Z       0.948900
     35 H011        -0.3620    -0.8510    -0.5650 h1         1 D0Z       0.077700
     36 H012        -0.3580     0.9170    -0.4520 h1         1 D0Z       0.077700
     37 H013        -0.3610    -0.0670     1.0190 h1         1 D0Z       0.077700
     38 H061         1.7780     2.4500     1.2130 h1         1 D0Z       0.045700
     39 H072         3.1250     3.9590    -1.0570 hc         1 D0Z       0.055700
     40 H071         2.7330     4.6400     0.5310 hc         1 D0Z       0.055700
     41 H081         4.6180     2.3240    -0.0380 hc         1 D0Z       0.019700
     42 H082         4.1560     2.8650     1.5820 hc         1 D0Z       0.019700
     43 H092         5.2900     5.1730    -0.0650 hc         1 D0Z       0.105700
     44 H091         4.7920     4.2350     1.4060 hc         1 D0Z       0.105700
     45 H101         7.0090     2.8440     0.4700 hx         1 D0Z       0.067700
     46 H102         6.5460     3.3890     2.0910 hx         1 D0Z       0.067700
     47 H152        -2.0790     3.8510    -0.3080 h1         1 D0Z       0.061200
     48 H151        -1.2040     5.2220    -1.0000 h1         1 D0Z       0.061200
     49 H161        -1.7840     5.1970     1.9510 hc         1 D0Z       0.007700
     50 H172        -3.9500     4.6740     0.9540 hc         1 D0Z       0.014700
     51 H171        -3.9420     6.3690     1.4580 hc         1 D0Z       0.014700
     52 H191        -5.6410     7.2540    -0.7960 hc         1 D0Z       0.030200
     53 H192        -5.8740     5.6150    -0.1400 hc         1 D0Z       0.030200
     54 H201        -6.3260     4.8480    -2.2300 hc         1 D0Z       0.011700
     55 H202        -6.0910     6.4830    -2.8920 hc         1 D0Z       0.011700
     56 H212        -4.4270     4.3630    -3.4940 hc         1 D0Z       0.011700
     57 H211        -3.8780     6.0620    -3.4900 hc         1 D0Z       0.011700
     58 H221        -3.6240     3.9860    -1.2620 hc         1 D0Z       0.030200
     59 H222        -2.3610     5.0610    -1.9240 hc         1 D0Z       0.030200
     60 H261        -1.2550     8.9800    -1.7650 h1         1 D0Z       0.097700
     61 H271        -1.9280     8.3670    -4.6650 hc         1 D0Z       0.023200
     62 H272        -0.6800     9.5090    -4.1450 hc         1 D0Z       0.023200
     63 H291         1.3540     8.7360    -3.0680 ha         1 D0Z       0.111500
     64 H301         2.9510     6.8780    -2.8050 ha         1 D0Z       0.093000
     65 H321        -0.0640     4.1170    -4.0750 ha         1 D0Z       0.093000
     66 H331        -1.6670     6.1240    -4.3470 ha         1 D0Z       0.111500
     67 H051         2.6620     1.5680    -1.4900 hn         1 D0Z       0.356800
     68 H111         7.7180     5.2700     1.8550 hn         1 D0Z       0.213800
     69 H112         8.6340     4.3000     0.9210 hn         1 D0Z       0.213800
     70 H251        -3.1180     7.0680    -3.0140 hn         1 D0Z       0.165500
     71 H341         1.9500     3.5420    -3.1980 ho         1 D0Z       0.409000
     72 O03          2.3120     0.0000     1.3300 o          1 D0Z      -0.605800
     73 O04          2.3120    -0.9120    -0.9690 o          1 D0Z      -0.605800
     74 O13          0.1920     2.9600    -1.4600 o          1 D0Z      -0.689100
     75 O37         -2.3140    11.2400    -2.9610 o          1 D0Z      -0.893800
     76 H113         7.5650     5.3330     0.2290 hn         1 D0Z       0.213800
     77 N14         -0.1310     4.1100     0.4100 ns         1 D0Z      -0.102900
     78 O36         -4.0480     9.9350    -2.5450 o          1 D0Z      -0.893800
     79 H141         0.2160     4.3930     1.3050 hn         1 D0Z       0.168500
@<TRIPOS>BOND
     1     1    34 1   
     2     1    35 1   
     3     1    36 1   
     4     1    37 1   
     5     2     3 1   
     6     2     7 1   
     7     2    27 1   
     8     2    38 1   
     9     3     4 1   
    10     3    39 1   
    11     3    40 1   
    12     4     5 1   
    13     4    41 1   
    14     4    42 1   
    15     5     6 1   
    16     5    43 1   
    17     5    44 1   
    18     6    28 1   
    19     6    45 1   
    20     6    46 1   
    21     7    74 2   
    22     7    77 1   
    23     8     9 1   
    24     8    47 1   
    25     8    48 1   
    26     8    77 1   
    27     9    10 1   
    28     9    26 1   
    29     9    49 1   
    30    10    11 1   
    31    10    50 1   
    32    10    51 1   
    33    11    12 1   
    34    11    15 1   
    35    11    16 1   
    36    12    13 1   
    37    12    52 1   
    38    12    53 1   
    39    13    14 1   
    40    13    54 1   
    41    13    55 1   
    42    14    15 1   
    43    14    56 1   
    44    14    57 1   
    45    15    58 1   
    46    15    59 1   
    47    16    29 1   
    48    16    30 2   
    49    17    18 1   
    50    17    25 1   
    51    17    29 1   
    52    17    60 1   
    53    18    19 1   
    54    18    61 1   
    55    18    62 1   
    56    19    20 ar  
    57    19    24 ar  
    58    20    21 ar  
    59    20    63 1   
    60    21    22 ar  
    61    21    64 1   
    62    22    23 ar  
    63    22    31 1   
    64    23    24 ar  
    65    23    65 1   
    66    24    66 1   
    67    25    75 1   
    68    25    78 1   
    69    26    32 1   
    70    26    33 1   
    71    27    34 1   
    72    27    67 1   
    73    28    68 1   
    74    28    69 1   
    75    28    76 1   
    76    29    70 1   
    77    31    71 1   
    78    34    72 2   
    79    34    73 2   
    80    77    79 1   
@<TRIPOS>SUBSTRUCTURE
     1 D0Z         1 TEMP              0 ****  ****    0 ROOT
