@<TRIPOS>MOLECULE
D10
   32    31     1     0     0
SMALL
bcc


@<TRIPOS>ATOM
      1 C1          0.0060    0.0000   -0.0080 c3        1 D10     -0.092100
      2 C2          1.5130   -0.0000    0.0180 c3        1 D10     -0.080400
      3 C3          2.0450    0.0000    1.4350 c3        1 D10     -0.079400
      4 C4          3.5580   -0.0000    1.4560 c3        1 D10     -0.079400
      5 C5          4.0880   -0.0000    2.8740 c3        1 D10     -0.079400
      6 C6          5.6020    0.0000    2.8950 c3        1 D10     -0.079400
      7 C7          6.1320    0.0000    4.3130 c3        1 D10     -0.079400
      8 C8          7.6450   -0.0000    4.3340 c3        1 D10     -0.079400
      9 C9          8.1770   -0.0000    5.7510 c3        1 D10     -0.080400
     10 C10         9.6830    0.0000    5.7770 c3        1 D10     -0.092100
     11 H11        -0.3640    0.0000   -1.0620 hc        1 D10      0.032700
     12 H12        -0.3970    0.9050    0.5070 hc        1 D10      0.032700
     13 H13        -0.3970   -0.9050    0.5070 hc        1 D10      0.032700
     14 H21         1.8990   -0.9020   -0.5260 hc        1 D10      0.038700
     15 H22         1.8990    0.9020   -0.5260 hc        1 D10      0.038700
     16 H31         1.6610    0.9020    1.9800 hc        1 D10      0.039700
     17 H32         1.6610   -0.9020    1.9800 hc        1 D10      0.039700
     18 H41         3.9420   -0.9030    0.9110 hc        1 D10      0.039700
     19 H42         3.9420    0.9020    0.9110 hc        1 D10      0.039700
     20 H51         3.7040    0.9020    3.4190 hc        1 D10      0.039700
     21 H52         3.7040   -0.9030    3.4190 hc        1 D10      0.039700
     22 H61         5.9850    0.9030    2.3500 hc        1 D10      0.039700
     23 H62         5.9850   -0.9020    2.3500 hc        1 D10      0.039700
     24 H71         5.7480   -0.9020    4.8580 hc        1 D10      0.039700
     25 H72         5.7480    0.9030    4.8570 hc        1 D10      0.039700
     26 H81         8.0290   -0.9020    3.7890 hc        1 D10      0.039700
     27 H82         8.0290    0.9020    3.7890 hc        1 D10      0.039700
     28 H91         7.7910   -0.9030    6.2950 hc        1 D10      0.038700
     29 H92         7.7900    0.9020    6.2950 hc        1 D10      0.038700
     30 H101       10.0540   -0.0000    6.8300 hc        1 D10      0.032700
     31 H102       10.0870   -0.9050    5.2610 hc        1 D10      0.032700
     32 H103       10.0870    0.9050    5.2610 hc        1 D10      0.032700
@<TRIPOS>BOND
     1    1    2 1   
     2    1   11 1   
     3    1   12 1   
     4    1   13 1   
     5    2    3 1   
     6    2   14 1   
     7    2   15 1   
     8    3    4 1   
     9    3   16 1   
    10    3   17 1   
    11    4    5 1   
    12    4   18 1   
    13    4   19 1   
    14    5    6 1   
    15    5   20 1   
    16    5   21 1   
    17    6    7 1   
    18    6   22 1   
    19    6   23 1   
    20    7    8 1   
    21    7   24 1   
    22    7   25 1   
    23    8    9 1   
    24    8   26 1   
    25    8   27 1   
    26    9   10 1   
    27    9   28 1   
    28    9   29 1   
    29   10   30 1   
    30   10   31 1   
    31   10   32 1   
@<TRIPOS>SUBSTRUCTURE
     1 D10         1 TEMP              0 ****  ****    0 ROOT
