@<TRIPOS>MOLECULE
molecule
   32    31     1     0     0
SMALL
bcc


@<TRIPOS>ATOM
      1 C1           0.0000     0.0000     0.0000 c3         1 D10      -0.092100
      2 C2           1.5300     0.0000     0.0000 c3         1 D10      -0.084400
      3 C3           2.0410     0.0000     1.4420 c3         1 D10      -0.081400
      4 C4           3.5700    -0.0000     1.4430 c3         1 D10      -0.082400
      5 C5           4.0800     0.0000     2.8840 c3         1 D10      -0.081400
      6 C6           5.6090    -0.0000     2.8850 c3         1 D10      -0.081400
      7 C7           6.1200     0.0000     4.3260 c3         1 D10      -0.082400
      8 C8           7.6490    -0.0000     4.3270 c3         1 D10      -0.081400
      9 C9           8.1600    -0.0000     5.7680 c3         1 D10      -0.084400
     10 C10          9.6900    -0.0000     5.7680 c3         1 D10      -0.092100
     11 H11         -0.3610    -0.8850     0.5110 hc         1 D10       0.032367
     12 H12         -0.3610     0.8850     0.5110 hc         1 D10       0.032367
     13 H13         -0.3610     0.0000    -1.0210 hc         1 D10       0.032367
     14 H21          1.8910    -0.8840    -0.5110 hc         1 D10       0.039700
     15 H22          1.8910     0.8840    -0.5110 hc         1 D10       0.039700
     16 H31          1.6800     0.8840     1.9530 hc         1 D10       0.040700
     17 H32          1.6800    -0.8840     1.9530 hc         1 D10       0.040700
     18 H41          3.9310    -0.8840     0.9320 hc         1 D10       0.040700
     19 H42          3.9310     0.8840     0.9320 hc         1 D10       0.040700
     20 H51          3.7190     0.8840     3.3950 hc         1 D10       0.040700
     21 H52          3.7190    -0.8840     3.3950 hc         1 D10       0.040700
     22 H61          5.9710    -0.8840     2.3740 hc         1 D10       0.040700
     23 H62          5.9710     0.8840     2.3740 hc         1 D10       0.040700
     24 H71          5.7580     0.8840     4.8370 hc         1 D10       0.040700
     25 H72          5.7580    -0.8840     4.8370 hc         1 D10       0.040700
     26 H81          8.0100     0.8840     3.8160 hc         1 D10       0.040700
     27 H82          8.0100    -0.8840     3.8160 hc         1 D10       0.040700
     28 H91          7.7990    -0.8840     6.2790 hc         1 D10       0.039700
     29 H92          7.7990     0.8840     6.2790 hc         1 D10       0.039700
     30 H101        10.0510    -0.0000     6.7900 hc         1 D10       0.032367
     31 H102        10.0510    -0.8850     5.2580 hc         1 D10       0.032367
     32 H103        10.0510     0.8850     5.2580 hc         1 D10       0.032367
@<TRIPOS>BOND
     1     1     2 1
     2     1    11 1
     3     1    12 1
     4     1    13 1
     5     2     3 1
     6     2    14 1
     7     2    15 1
     8     3     4 1
     9     3    16 1
    10     3    17 1
    11     4     5 1
    12     4    18 1
    13     4    19 1
    14     5     6 1
    15     5    20 1
    16     5    21 1
    17     6     7 1
    18     6    22 1
    19     6    23 1
    20     7     8 1
    21     7    24 1
    22     7    25 1
    23     8     9 1
    24     8    26 1
    25     8    27 1
    26     9    10 1
    27     9    28 1
    28     9    29 1
    29    10    30 1
    30    10    31 1
    31    10    32 1
@<TRIPOS>SUBSTRUCTURE
     1 D10         1 TEMP              0 ****  ****    0 ROOT
