@<TRIPOS>MOLECULE
molecule
   38    37     1     0     0
SMALL
bcc


@<TRIPOS>ATOM
      1 C1           0.0000     0.0000     0.0000 c3         1 D12      -0.092100
      2 C2           1.5290     0.0000     0.0000 c3         1 D12      -0.084400
      3 C3           2.0410     0.0000     1.4410 c3         1 D12      -0.081400
      4 C4           3.5710    -0.0000     1.4400 c3         1 D12      -0.082400
      5 C5           4.0830    -0.0000     2.8820 c3         1 D12      -0.081400
      6 C6           5.6120    -0.0000     2.8800 c3         1 D12      -0.081900
      7 C7           6.1230     0.0000     4.3220 c3         1 D12      -0.081900
      8 C8           7.6520    -0.0000     4.3210 c3         1 D12      -0.081400
      9 C9           8.1650     0.0000     5.7620 c3         1 D12      -0.082400
     10 C10          9.6950    -0.0000     5.7620 c3         1 D12      -0.081400
     11 C11         10.2060     0.0000     7.2030 c3         1 D12      -0.084400
     12 C12         11.7360    -0.0000     7.2030 c3         1 D12      -0.092100
     13 H11         -0.3610    -0.8850     0.5110 hc         1 D12       0.032367
     14 H12         -0.3610     0.0000    -1.0210 hc         1 D12       0.032367
     15 H13         -0.3610     0.8850     0.5110 hc         1 D12       0.032367
     16 H21          1.8900     0.8840    -0.5110 hc         1 D12       0.039700
     17 H22          1.8900    -0.8840    -0.5110 hc         1 D12       0.039700
     18 H31          1.6800     0.8840     1.9520 hc         1 D12       0.040700
     19 H32          1.6800    -0.8840     1.9520 hc         1 D12       0.040700
     20 H41          3.9310     0.8840     0.9290 hc         1 D12       0.040700
     21 H42          3.9310    -0.8840     0.9290 hc         1 D12       0.040700
     22 H51          3.7230    -0.8840     3.3930 hc         1 D12       0.040700
     23 H52          3.7230     0.8840     3.3930 hc         1 D12       0.040700
     24 H61          5.9730    -0.8850     2.3690 hc         1 D12       0.040700
     25 H62          5.9730     0.8850     2.3690 hc         1 D12       0.040700
     26 H71          5.7630     0.8850     4.8330 hc         1 D12       0.040700
     27 H72          5.7630    -0.8850     4.8330 hc         1 D12       0.040700
     28 H81          8.0130     0.8840     3.8100 hc         1 D12       0.040700
     29 H82          8.0130    -0.8840     3.8100 hc         1 D12       0.040700
     30 H91          7.8040     0.8840     6.2740 hc         1 D12       0.040700
     31 H92          7.8040    -0.8840     6.2740 hc         1 D12       0.040700
     32 H101        10.0550     0.8840     5.2510 hc         1 D12       0.040700
     33 H102        10.0550    -0.8840     5.2510 hc         1 D12       0.040700
     34 H111         9.8450    -0.8840     7.7140 hc         1 D12       0.039700
     35 H112         9.8450     0.8840     7.7140 hc         1 D12       0.039700
     36 H121        12.0970     0.8850     6.6920 hc         1 D12       0.032367
     37 H122        12.0970    -0.8850     6.6920 hc         1 D12       0.032367
     38 H123        12.0970    -0.0000     8.2240 hc         1 D12       0.032367
@<TRIPOS>BOND
     1     1     2 1
     2     1    13 1
     3     1    14 1
     4     1    15 1
     5     2     3 1
     6     2    16 1
     7     2    17 1
     8     3     4 1
     9     3    18 1
    10     3    19 1
    11     4     5 1
    12     4    20 1
    13     4    21 1
    14     5     6 1
    15     5    22 1
    16     5    23 1
    17     6     7 1
    18     6    24 1
    19     6    25 1
    20     7     8 1
    21     7    26 1
    22     7    27 1
    23     8     9 1
    24     8    28 1
    25     8    29 1
    26     9    10 1
    27     9    30 1
    28     9    31 1
    29    10    11 1
    30    10    32 1
    31    10    33 1
    32    11    12 1
    33    11    34 1
    34    11    35 1
    35    12    36 1
    36    12    37 1
    37    12    38 1
@<TRIPOS>SUBSTRUCTURE
     1 D12         1 TEMP              0 ****  ****    0 ROOT
