@<TRIPOS>MOLECULE
D12
   38    37     1     0     0
SMALL
bcc


@<TRIPOS>ATOM
      1 C1          0.0060   -0.0000   -0.0090 c3        1 D12     -0.092100
      2 C2          1.5130    0.0000    0.0160 c3        1 D12     -0.080400
      3 C3          2.0450   -0.0000    1.4340 c3        1 D12     -0.079400
      4 C4          3.5590    0.0000    1.4540 c3        1 D12     -0.079400
      5 C5          4.0890   -0.0000    2.8720 c3        1 D12     -0.079400
      6 C6          5.6030    0.0000    2.8920 c3        1 D12     -0.079400
      7 C7          6.1330    0.0000    4.3100 c3        1 D12     -0.079400
      8 C8          7.6470   -0.0000    4.3310 c3        1 D12     -0.079400
      9 C9          8.1770    0.0000    5.7480 c3        1 D12     -0.079400
     10 C10         9.6900   -0.0000    5.7690 c3        1 D12     -0.079400
     11 C11        10.2220    0.0000    7.1870 c3        1 D12     -0.080400
     12 C12        11.7290   -0.0000    7.2120 c3        1 D12     -0.092100
     13 H11        -0.3970    0.9040    0.5070 hc        1 D12      0.032700
     14 H12        -0.3640   -0.0000   -1.0620 hc        1 D12      0.032700
     15 H13        -0.3960   -0.9050    0.5070 hc        1 D12      0.032700
     16 H21         1.8990   -0.9020   -0.5280 hc        1 D12      0.038700
     17 H22         1.8990    0.9030   -0.5270 hc        1 D12      0.038700
     18 H31         1.6620   -0.9030    1.9780 hc        1 D12      0.039700
     19 H32         1.6610    0.9020    1.9790 hc        1 D12      0.039700
     20 H41         3.9420    0.9030    0.9090 hc        1 D12      0.039700
     21 H42         3.9420   -0.9020    0.9090 hc        1 D12      0.039700
     22 H51         3.7060    0.9020    3.4170 hc        1 D12      0.039700
     23 H52         3.7060   -0.9030    3.4170 hc        1 D12      0.039700
     24 H61         5.9860    0.9030    2.3470 hc        1 D12      0.039700
     25 H62         5.9860   -0.9020    2.3470 hc        1 D12      0.039700
     26 H71         5.7500    0.9030    4.8550 hc        1 D12      0.039700
     27 H72         5.7500   -0.9020    4.8550 hc        1 D12      0.039700
     28 H81         8.0300   -0.9030    3.7860 hc        1 D12      0.039700
     29 H82         8.0300    0.9020    3.7850 hc        1 D12      0.039700
     30 H91         7.7930   -0.9020    6.2940 hc        1 D12      0.039700
     31 H92         7.7940    0.9030    6.2930 hc        1 D12      0.039700
     32 H101       10.0750    0.9020    5.2240 hc        1 D12      0.039700
     33 H102       10.0740   -0.9030    5.2250 hc        1 D12      0.039700
     34 H111        9.8360   -0.9020    7.7310 hc        1 D12      0.038700
     35 H112        9.8360    0.9030    7.7300 hc        1 D12      0.038700
     36 H121       12.1320    0.9050    6.6970 hc        1 D12      0.032700
     37 H122       12.1320   -0.9050    6.6970 hc        1 D12      0.032700
     38 H123       12.0990   -0.0000    8.2660 hc        1 D12      0.032700
@<TRIPOS>BOND
     1    1    2 1   
     2    1   13 1   
     3    1   14 1   
     4    1   15 1   
     5    2    3 1   
     6    2   16 1   
     7    2   17 1   
     8    3    4 1   
     9    3   18 1   
    10    3   19 1   
    11    4    5 1   
    12    4   20 1   
    13    4   21 1   
    14    5    6 1   
    15    5   22 1   
    16    5   23 1   
    17    6    7 1   
    18    6   24 1   
    19    6   25 1   
    20    7    8 1   
    21    7   26 1   
    22    7   27 1   
    23    8    9 1   
    24    8   28 1   
    25    8   29 1   
    26    9   10 1   
    27    9   30 1   
    28    9   31 1   
    29   10   11 1   
    30   10   32 1   
    31   10   33 1   
    32   11   12 1   
    33   11   34 1   
    34   11   35 1   
    35   12   36 1   
    36   12   37 1   
    37   12   38 1   
@<TRIPOS>SUBSTRUCTURE
     1 D12         1 TEMP              0 ****  ****    0 ROOT
