@<TRIPOS>MOLECULE
molecule
   43    46     1     0     0
SMALL
bcc


@<TRIPOS>ATOM
      1 C1           0.0000     0.0000     0.0000 cc         1 D13       0.457000
      2 N2           1.3140     0.0000     0.0000 nd         1 D13      -0.664000
      3 C3           1.7620     0.0000     1.2660 cd         1 D13       0.382800
      4 C4           0.6600    -0.0090     2.1040 cc         1 D13      -0.164600
      5 N5          -0.4470    -0.0090     1.2890 na         1 D13      -0.275900
      6 C6           3.1800     0.0030     1.6890 ca         1 D13      -0.070500
      7 C7           3.6200    -0.8110     2.7390 ca         1 D13      -0.236300
      8 C8           4.9500    -0.7770     3.1000 ca         1 D13       0.416200
      9 N9           5.8030     0.0090     2.4710 nb         1 D13      -0.691000
     10 C10          5.4300     0.7920     1.4760 ca         1 D13       0.416200
     11 C11          4.1210     0.8160     1.0470 ca         1 D13      -0.236300
     12 C12          0.6720    -0.0180     3.5800 ca         1 D13      -0.021000
     13 C13          1.4990     0.8630     4.2800 ca         1 D13      -0.072000
     14 C14          1.5010     0.8520     5.6600 ca         1 D13       0.051900
     15 I14          2.7360     2.1760     6.7130 i          1 D13      -0.155900
     16 C15          0.6930    -0.0360     6.3490 ca         1 D13      -0.093000
     17 C16         -0.1250    -0.9140     5.6610 ca         1 D13      -0.129000
     18 C17         -0.1410    -0.9110     4.2820 ca         1 D13      -0.111000
     19 C18         -0.8570     0.0030    -1.2050 ca         1 D13      -0.084500
     20 C19         -0.5090     0.7810    -2.3100 ca         1 D13      -0.122000
     21 C20         -1.3120     0.7800    -3.4310 ca         1 D13      -0.058000
     22 C21         -2.4600     0.0080    -3.4620 ca         1 D13      -0.108500
     23 C22         -2.8130    -0.7600    -2.3690 ca         1 D13      -0.058000
     24 C23         -2.0150    -0.7720    -1.2430 ca         1 D13      -0.122000
     25 S24         -3.4800     0.0120    -4.8980 sx         1 D13       0.345400
     26 O24         -4.7090    -0.4220    -4.3300 o          1 D13      -0.521200
     27 C25         -2.7290    -1.3530    -5.8240 c3         1 D13      -0.105800
     28 HN5         -1.4030    -0.0130     1.5870 hn         1 D13       0.309700
     29 H7           2.9250    -1.4590     3.2590 ha         1 D13       0.147000
     30 H8           5.2990    -1.4040     3.9110 h4         1 D13       0.023600
     31 H10          6.1650     1.4200     0.9870 h4         1 D13       0.023600
     32 H11          3.8230     1.4620     0.2290 ha         1 D13       0.147000
     33 H13          2.0620     1.6180     3.7440 ha         1 D13       0.156000
     34 H15          0.7000    -0.0420     7.4320 ha         1 D13       0.145000
     35 H16         -0.7540    -1.6060     6.2070 ha         1 D13       0.140000
     36 H17         -0.7820    -1.6000     3.7450 ha         1 D13       0.135000
     37 H19          0.3890     1.3860    -2.2860 ha         1 D13       0.141500
     38 H20         -1.0420     1.3820    -4.2900 ha         1 D13       0.146500
     39 H22         -3.7130    -1.3620    -2.4000 ha         1 D13       0.146500
     40 H23         -2.2940    -1.3750    -0.3870 ha         1 D13       0.141500
     41 H251        -2.7650    -2.2570    -5.2280 h1         1 D13       0.076700
     42 H252        -1.6970    -1.1110    -6.0500 h1         1 D13       0.076700
     43 H253        -3.2740    -1.5070    -6.7470 h1         1 D13       0.076700
@<TRIPOS>BOND
     1     1     2 2
     2     1     5 1
     3     1    19 1
     4     2     3 1
     5     3     4 2
     6     3     6 1
     7     4     5 1
     8     4    12 1
     9     5    28 1
    10     6     7 ar
    11     6    11 ar
    12     7     8 ar
    13     7    29 1
    14     8     9 ar
    15     8    30 1
    16     9    10 ar
    17    10    11 ar
    18    10    31 1
    19    11    32 1
    20    12    13 ar
    21    12    18 ar
    22    13    14 ar
    23    13    33 1
    24    14    15 1
    25    14    16 ar
    26    16    17 ar
    27    16    34 1
    28    17    18 ar
    29    17    35 1
    30    18    36 1
    31    19    20 ar
    32    19    24 ar
    33    20    21 ar
    34    20    37 1
    35    21    22 ar
    36    21    38 1
    37    22    23 ar
    38    22    25 1
    39    23    24 ar
    40    23    39 1
    41    24    40 1
    42    25    26 2
    43    25    27 1
    44    27    41 1
    45    27    42 1
    46    27    43 1
@<TRIPOS>SUBSTRUCTURE
     1 D13         1 TEMP              0 ****  ****    0 ROOT
