@<TRIPOS>MOLECULE
D13
   43    46     1     0     0
SMALL
bcc


@<TRIPOS>ATOM
      1 C1          0.0850   -0.0550    0.0030 cc        1 D13      0.454000
      2 N2          1.4430    0.0270   -0.0360 nd        1 D13     -0.640000
      3 C3          1.8760    0.0180    1.2930 cd        1 D13      0.366800
      4 C4          0.7520   -0.0650    2.1620 cc        1 D13     -0.133600
      5 N5         -0.3700   -0.1190    1.3310 na        1 D13     -0.297900
      6 C6          3.2830    0.0610    1.6540 ca        1 D13     -0.073500
      7 C7          3.7610   -0.6220    2.7820 ca        1 D13     -0.229300
      8 C8          5.1330   -0.5600    3.0770 ca        1 D13      0.388200
      9 N9          6.0270    0.1220    2.3340 nb        1 D13     -0.662000
     10 C10         5.5560    0.7710    1.2520 ca        1 D13      0.388200
     11 C11         4.2030    0.7720    0.8680 ca        1 D13     -0.229300
     12 C12         0.6500   -0.0720    3.6100 ca        1 D13     -0.031000
     13 C13         1.4170    0.8240    4.3700 ca        1 D13     -0.071000
     14 C14         1.3080    0.8340    5.7590 ca        1 D13      0.020900
     15 I14         2.4130    2.1290    6.8470 i         1 D13     -0.128900
     16 C15         0.4360   -0.0470    6.4000 ca        1 D13     -0.088000
     17 C16        -0.3260   -0.9410    5.6470 ca        1 D13     -0.133000
     18 C17        -0.2240   -0.9560    4.2580 ca        1 D13     -0.109000
     19 C18        -0.8120   -0.0800   -1.1520 ca        1 D13     -0.085500
     20 C19        -0.4000    0.5040   -2.3590 ca        1 D13     -0.126500
     21 C20        -1.2480    0.4860   -3.4620 ca        1 D13     -0.059000
     22 C21        -2.5130   -0.1040   -3.3870 ca        1 D13     -0.122500
     23 C22        -2.9120   -0.6930   -2.1850 ca        1 D13     -0.059000
     24 C23        -2.0740   -0.6840   -1.0720 ca        1 D13     -0.126500
     25 S24        -3.5780   -0.0080   -4.7280 sx        1 D13      0.326400
     26 O24        -4.8170   -0.7340   -4.3270 o         1 D13     -0.510200
     27 C25        -2.7760   -1.0540   -5.8640 c3        1 D13     -0.128800
     28 HN5        -1.3090   -0.1480    1.6300 hn        1 D13      0.308700
     29 H7          3.0780   -1.1960    3.4220 ha        1 D13      0.152500
     30 H8          5.5420   -1.0860    3.9580 h4        1 D13      0.022600
     31 H10         6.3080    1.3200    0.6570 h4        1 D13      0.022600
     32 H11         3.8820    1.3140   -0.0310 ha        1 D13      0.152500
     33 H13         2.1070    1.5110    3.8520 ha        1 D13      0.161000
     34 H15         0.3440   -0.0450    7.4970 ha        1 D13      0.149000
     35 H16        -1.0100   -1.6380    6.1540 ha        1 D13      0.142000
     36 H17        -0.8210   -1.6730    3.6740 ha        1 D13      0.136000
     37 H19         0.5950    0.9720   -2.4350 ha        1 D13      0.146000
     38 H20        -0.9110    0.9460   -4.4060 ha        1 D13      0.150500
     39 H22        -3.9070   -1.1710   -2.1270 ha        1 D13      0.150500
     40 H23        -2.4110   -1.1730   -0.1460 ha        1 D13      0.146000
     41 H251       -2.8920   -2.1380   -5.6350 h1        1 D13      0.086367
     42 H252       -1.6870   -0.8310   -5.9210 h1        1 D13      0.086367
     43 H253       -3.2220   -0.8820   -6.8720 h1        1 D13      0.086367
@<TRIPOS>BOND
     1    1    2 2   
     2    1    5 1   
     3    1   19 1   
     4    2    3 1   
     5    3    4 2   
     6    3    6 1   
     7    4    5 1   
     8    4   12 1   
     9    5   28 1   
    10    6    7 ar  
    11    6   11 ar  
    12    7    8 ar  
    13    7   29 1   
    14    8    9 ar  
    15    8   30 1   
    16    9   10 ar  
    17   10   11 ar  
    18   10   31 1   
    19   11   32 1   
    20   12   13 ar  
    21   12   18 ar  
    22   13   14 ar  
    23   13   33 1   
    24   14   15 1   
    25   14   16 ar  
    26   16   17 ar  
    27   16   34 1   
    28   17   18 ar  
    29   17   35 1   
    30   18   36 1   
    31   19   20 ar  
    32   19   24 ar  
    33   20   21 ar  
    34   20   37 1   
    35   21   22 ar  
    36   21   38 1   
    37   22   23 ar  
    38   22   25 1   
    39   23   24 ar  
    40   23   39 1   
    41   24   40 1   
    42   25   26 2   
    43   25   27 1   
    44   27   41 1   
    45   27   42 1   
    46   27   43 1   
@<TRIPOS>SUBSTRUCTURE
     1 D13         1 TEMP              0 ****  ****    0 ROOT
