@<TRIPOS>MOLECULE
molecule
   66    70     1     0     0
SMALL
bcc


@<TRIPOS>ATOM
      1 C1           0.0000     0.0000     0.0000 ca         1 D14      -0.148300
      2 Cl1         -0.8350    -0.0020    -3.9020 cl         1 D14      -0.099400
      3 C2           1.4200     0.0000     0.0000 ca         1 D14      -0.030000
      4 C3           2.0860     0.0000     1.2370 ca         1 D14      -0.159300
      5 C4           1.3300     0.0010     2.3960 ca         1 D14       0.356800
      6 N5          -0.0060     0.0010     2.3550 nb         1 D14      -0.691000
      7 C6          -0.6780     0.0010     1.2340 ca         1 D14       0.446200
      8 C7           2.1120    -0.0020    -1.2200 ca         1 D14      -0.101000
      9 C8           1.4120    -0.0030    -2.3890 ca         1 D14      -0.110000
     10 C9           0.0180    -0.0020    -2.3900 ca         1 D14       0.036400
     11 C10         -0.6870    -0.0060    -1.2230 ca         1 D14      -0.102000
     12 C12          2.0140     0.0020     3.7070 c          1 D14       0.578600
     13 N13          1.2920     0.0030     4.8440 ns         1 D14      -0.567900
     14 C14          1.9690     0.0030     6.1440 c3         1 D14       0.103700
     15 O15          3.2290     0.0020     3.7590 o          1 D14      -0.613100
     16 C16          1.0460    -0.6060     7.2010 c3         1 D14       0.109700
     17 C17          1.7540    -0.6050     8.5570 c3         1 D14      -0.075400
     18 C18          2.1020     0.8330     8.9500 c3         1 D14      -0.148700
     19 C19          3.0250     1.4410     7.8920 c3         1 D14      -0.072400
     20 C20          2.3180     1.4400     6.5370 c3         1 D14      -0.095400
     21 N26         -0.1820     0.1870     7.2900 ns         1 D14      -0.589900
     22 C27         -1.3200    -0.3810     7.7400 c          1 D14       0.592600
     23 C28         -2.5540     0.4160     7.8300 cc         1 D14       0.407900
     24 O29         -1.3250    -1.5510     8.0690 o          1 D14      -0.552100
     25 N30         -3.7060    -0.0210     8.2450 nd         1 D14      -0.586000
     26 C31         -4.7020     0.8480     8.2550 cd         1 D14       0.343600
     27 C32         -4.3690     2.0820     7.8230 cc         1 D14      -0.173700
     28 S33         -2.7090     2.1140     7.4000 ss         1 D14      -0.174300
     29 C34         -5.5910     2.9790     7.8800 c3         1 D14       0.230100
     30 N35         -6.7470     2.0600     7.9670 n3         1 D14      -0.686600
     31 C36         -6.1810     0.8650     8.6290 c3         1 D14       0.126500
     32 C37         -7.8270     2.6470     8.7730 c3         1 D14       0.139100
     33 H3           3.1690     0.0000     1.2830 ha         1 D14       0.170000
     34 H6          -1.7610     0.0010     1.2550 h4         1 D14       0.033100
     35 H7           3.1950    -0.0030    -1.2330 ha         1 D14       0.149000
     36 H8           1.9470    -0.0040    -3.3310 ha         1 D14       0.149000
     37 H10         -1.7640     0.1110    -1.2400 ha         1 D14       0.152000
     38 HN13         0.2920    -0.0260     4.8010 hn         1 D14       0.338500
     39 H14          2.8790    -0.5820     6.0810 h1         1 D14       0.096700
     40 H16          0.8050    -1.6250     6.9220 h1         1 D14       0.094700
     41 H17          1.0980    -1.0340     9.3050 hc         1 D14       0.077700
     42 H17A         2.6630    -1.1900     8.4890 hc         1 D14       0.077700
     43 H18          1.1930     1.4180     9.0130 hc         1 D14       0.059700
     44 C24          2.7990     0.8330    10.2860 c          1 D14       0.666100
     45 H19          3.9330     0.8530     7.8250 hc         1 D14       0.056200
     46 H19A         3.2690     2.4600     8.1700 hc         1 D14       0.056200
     47 H20          1.4080     2.0250     6.6050 hc         1 D14       0.051200
     48 H20A         2.9730     1.8690     5.7880 hc         1 D14       0.051200
     49 HN26        -0.1890     1.1370     6.9740 hn         1 D14       0.316500
     50 H34         -5.6570     3.5780     6.9800 h1         1 D14       0.057700
     51 H34A        -5.5500     3.6120     8.7580 h1         1 D14       0.057700
     52 H36         -6.2930     0.9460     9.7040 h1         1 D14       0.065200
     53 H36A        -6.6690    -0.0300     8.2620 h1         1 D14       0.065200
     54 H37         -8.6330     1.9310     8.8720 h1         1 D14       0.040700
     55 H37A        -8.1960     3.5410     8.2850 h1         1 D14       0.040700
     56 H37B        -7.4470     2.9010     9.7550 h1         1 D14       0.040700
     57 O3           3.3780    -0.1620    10.6690 o          1 D14      -0.601100
     58 N6           2.7800     1.9400    11.0550 n          1 D14      -0.498800
     59 C25          3.5360     1.9720    12.3100 c3         1 D14       0.099800
     60 C26          2.0040     3.1100    10.6370 c3         1 D14       0.099800
     61 H24          3.5400     2.9820    12.7030 h1         1 D14       0.040367
     62 H25          3.0710     1.3080    13.0290 h1         1 D14       0.040367
     63 H26          4.5540     1.6520    12.1270 h1         1 D14       0.040367
     64 H27          2.4710     3.5620     9.7710 h1         1 D14       0.040367
     65 H28          0.9960     2.8030    10.3860 h1         1 D14       0.040367
     66 H29          1.9720     3.8290    11.4470 h1         1 D14       0.040367
@<TRIPOS>BOND
     1     1     3 ar
     2     1     7 ar
     3     1    11 ar
     4     2    10 1
     5     3     4 ar
     6     3     8 ar
     7     4     5 ar
     8     4    33 1
     9     5     6 ar
    10     5    12 1
    11     6     7 ar
    12     7    34 1
    13     8     9 ar
    14     8    35 1
    15     9    10 ar
    16     9    36 1
    17    10    11 ar
    18    11    37 1
    19    12    13 1
    20    12    15 2
    21    13    14 1
    22    13    38 1
    23    14    16 1
    24    14    20 1
    25    14    39 1
    26    16    17 1
    27    16    21 1
    28    16    40 1
    29    17    18 1
    30    17    41 1
    31    17    42 1
    32    18    19 1
    33    18    43 1
    34    18    44 1
    35    19    20 1
    36    19    45 1
    37    19    46 1
    38    20    47 1
    39    20    48 1
    40    21    22 1
    41    21    49 1
    42    22    23 1
    43    22    24 2
    44    23    25 2
    45    23    28 1
    46    25    26 1
    47    26    27 2
    48    26    31 1
    49    27    28 1
    50    27    29 1
    51    29    30 1
    52    29    50 1
    53    29    51 1
    54    30    31 1
    55    30    32 1
    56    31    52 1
    57    31    53 1
    58    32    54 1
    59    32    55 1
    60    32    56 1
    61    44    57 2
    62    44    58 1
    63    58    59 1
    64    58    60 1
    65    59    61 1
    66    59    62 1
    67    59    63 1
    68    60    64 1
    69    60    65 1
    70    60    66 1
@<TRIPOS>SUBSTRUCTURE
     1 D14         1 TEMP              0 ****  ****    0 ROOT
