@<TRIPOS>MOLECULE
D15
   55    58     1     0     0
SMALL
bcc


@<TRIPOS>ATOM
      1 CAO          0.0000     0.0000     0.0000 ca         1 D15      -0.101000
      2 CAY          1.4040     0.0000     0.0000 ca         1 D15      -0.038600
      3 Cl1          2.3740    -0.0100    -1.4260 cl         1 D15       0.006600
      4 CAI          2.1450     0.0000     1.1540 ca         1 D15      -0.092000
      5 CAH          1.5390    -0.0070     2.3750 ca         1 D15      -0.058000
      6 CAL          0.1680    -0.0050     2.3990 ca         1 D15      -0.100000
      7 CBB         -0.5900     0.0130     1.2440 ca         1 D15      -0.129300
      8 CBF         -2.0820     0.0280     1.5110 c3         1 D15      -0.097400
      9 CAR         -2.8040    -0.9070     0.5770 c3         1 D15      -0.017400
     10 CAQ         -2.4740    -2.2310     1.2430 c3         1 D15      -0.081200
     11 NAA         -2.9450    -3.3720     0.4860 nz         1 D15       0.097400
     12 CAX         -2.5850     1.4680     1.7590 c          1 D15       0.533100
     13 OAC         -2.8030     1.7800     2.9400 o          1 D15      -0.604100
     14 NAT         -2.6640     2.3520     0.7570 ns         1 D15       0.077900
     15 CAZ         -3.0120     3.6370     1.0590 ca         1 D15      -0.158400
     16 CAP         -2.9270     4.2710     2.3530 ca         1 D15       0.034000
     17 CBE         -3.3050     5.6290     2.5760 ca         1 D15      -0.179900
     18 CAM         -3.4530     4.4020     0.0110 ca         1 D15      -0.147000
     19 CAN         -3.8090     5.7310     0.2350 ca         1 D15      -0.079000
     20 CBD         -3.7540     6.3500     1.4780 ca         1 D15      -0.314200
     21 NAV         -4.0710     7.5970     1.8680 na         1 D15       0.627900
     22 NAS         -3.8500     7.7240     3.0820 nc         1 D15      -0.709100
     23 CBC         -3.3660     6.6100     3.6020 cd         1 D15       0.252500
     24 NAU         -3.1360     6.5510     4.9110 ns         1 D15       0.043600
     25 CAW         -2.2890     5.6940     5.4770 c          1 D15       0.570700
     26 OAB         -1.5430     4.9850     4.8260 o          1 D15      -0.620100
     27 CBA         -2.2360     5.6130     7.0320 ca         1 D15      -0.152600
     28 CAJ         -1.2740     4.8200     7.6660 ca         1 D15      -0.068500
     29 CAF         -1.2110     4.7250     9.0580 ca         1 D15      -0.108500
     30 CAE         -2.1140     5.4160     9.8670 ca         1 D15      -0.074000
     31 CAG         -3.0500     6.2020     9.2230 ca         1 D15      -0.108500
     32 CAK         -3.1260     6.2920     7.8340 ca         1 D15      -0.068500
     33 HAO         -0.5790     0.0140    -0.9150 ha         1 D15       0.115000
     34 HAI          3.2260    -0.0010     1.0950 ha         1 D15       0.130000
     35 HAH          2.1180    -0.0140     3.2910 ha         1 D15       0.126000
     36 HAL         -0.3390    -0.0020     3.3570 ha         1 D15       0.125000
     37 HBF         -2.1860    -0.4480     2.4780 hc         1 D15       0.055700
     38 HAR1        -2.3940    -0.8570    -0.4250 hc         1 D15       0.045200
     39 HAR2        -3.8710    -0.7190     0.5800 hc         1 D15       0.045200
     40 HAQ1        -1.3990    -2.3070     1.3560 hx         1 D15       0.097700
     41 HAQ2        -2.9310    -2.2510     2.2250 hx         1 D15       0.097700
     42 HAA1        -3.9390    -3.3180     0.3850 hn         1 D15       0.220467
     43 HAA2        -2.5170    -3.3720    -0.4180 hn         1 D15       0.220467
     44 HAT         -2.7040     2.0320    -0.1910 hn         1 D15       0.158500
     45 HAP         -3.3680     3.7500     3.1940 ha         1 D15       0.143000
     46 HAM         -3.5820     4.1200    -1.0270 ha         1 D15       0.111000
     47 HAN         -4.1380     6.2610    -0.6500 ha         1 D15       0.100000
     48 HAV         -4.4380     8.3110     1.2710 hn         1 D15       0.137700
     49 HAU         -3.6190     7.1960     5.5040 hn         1 D15       0.174500
     50 HAJ         -0.5590     4.2720     7.0640 ha         1 D15       0.109500
     51 HAK         -3.8800     6.9240     7.3800 ha         1 D15       0.109500
     52 HAF         -0.4550     4.0990     9.5160 ha         1 D15       0.104000
     53 HAE         -2.0720     5.3530    10.9470 ha         1 D15       0.113000
     54 HAG         -3.7680     6.7520     9.8200 ha         1 D15       0.104000
     55 HAA3        -2.7080    -4.2150     0.9710 hn         1 D15       0.220467
@<TRIPOS>BOND
     1     1     2 ar  
     2     1     7 ar  
     3     1    33 1   
     4     2     3 1   
     5     2     4 ar  
     6     4     5 ar  
     7     4    34 1   
     8     5     6 ar  
     9     5    35 1   
    10     6     7 ar  
    11     6    36 1   
    12     7     8 1   
    13     8     9 1   
    14     8    12 1   
    15     8    37 1   
    16     9    10 1   
    17     9    38 1   
    18     9    39 1   
    19    10    11 1   
    20    10    40 1   
    21    10    41 1   
    22    11    42 1   
    23    11    43 1   
    24    11    55 1   
    25    12    13 2   
    26    12    14 1   
    27    14    15 1   
    28    14    44 1   
    29    15    16 ar  
    30    15    18 ar  
    31    16    17 ar  
    32    16    45 1   
    33    17    20 ar  
    34    17    23 1   
    35    18    19 ar  
    36    18    46 1   
    37    19    20 ar  
    38    19    47 1   
    39    20    21 1   
    40    21    22 1   
    41    21    48 1   
    42    22    23 2   
    43    23    24 1   
    44    24    25 1   
    45    24    49 1   
    46    25    26 2   
    47    25    27 1   
    48    27    28 ar  
    49    27    32 ar  
    50    28    29 ar  
    51    28    50 1   
    52    29    30 ar  
    53    29    52 1   
    54    30    31 ar  
    55    30    53 1   
    56    31    32 ar  
    57    31    54 1   
    58    32    51 1   
@<TRIPOS>SUBSTRUCTURE
     1 D15         1 TEMP              0 ****  ****    0 ROOT
