@<TRIPOS>MOLECULE
D16
   52    54     1     0     0
SMALL
bcc


@<TRIPOS>ATOM
      1 N1           0.0000     0.0000     0.0000 na         1 D16      -0.185600
      2 C2           1.3430     0.0000     0.0000 cc         1 D16       0.469200
      3 CM2          2.0580     0.0020    -1.3270 c3         1 D16      -0.036400
      4 N3           2.0620     0.0000     1.0880 nd         1 D16      -0.665100
      5 C4           1.4970    -0.0000     2.3110 c          1 D16       0.739100
      6 O4           2.1830    -0.0010     3.3190 o          1 D16      -0.611100
      7 C4A          0.0260    -0.0010     2.3950 ca         1 D16      -0.237600
      8 C5          -0.6450    -0.0010     3.6150 ca         1 D16      -0.007000
      9 C6          -2.0240    -0.0000     3.6290 ca         1 D16      -0.128300
     10 C7          -2.7400    -0.0000     2.4420 ca         1 D16      -0.015000
     11 C8          -2.0880    -0.0000     1.2260 ca         1 D16      -0.165000
     12 C8A         -0.7010    -0.0000     1.1900 ca         1 D16      -0.009400
     13 C9          -2.7570    -0.0000     4.9460 c3         1 D16       0.229100
     14 N10         -2.9950     1.3810     5.3730 nh         1 D16      -0.346000
     15 C11         -6.3350     2.8220     4.0940 cc         1 D16      -0.026700
     16 S13         -5.3830     1.3450     4.0270 ss         1 D16      -0.249800
     17 C14         -4.1550     2.0340     4.9900 cc         1 D16       0.104500
     18 C15         -4.4700     3.3120     5.3310 cd         1 D16      -0.249000
     19 C16         -5.6710     3.7560     4.8420 cd         1 D16      -0.049000
     20 O           -8.1680     4.0830     3.5770 o          1 D16      -0.679100
     21 N           -8.1470     2.0200     2.7480 ns         1 D16      -0.088900
     22 CA          -9.4440     2.2210     2.1000 c3         1 D16      -0.114300
     23 CB          -9.5680     1.2770     0.9030 c3         1 D16      -0.012400
     24 CG          -8.5250     1.6520    -0.1530 c3         1 D16      -0.143400
     25 CD          -8.6470     0.7220    -1.3320 c          1 D16       0.982600
     26 OE1         -9.4830    -0.1520    -1.3290 o          1 D16      -0.921300
     27 OE2         -7.8290     0.8640    -2.3870 o          1 D16      -0.921300
     28 CT         -10.5480     1.9320     3.0840 c          1 D16       0.986600
     29 O1         -10.2780     1.5930     4.2120 o          1 D16      -0.908300
     30 O2         -11.8310     2.0510     2.7080 o          1 D16      -0.908300
     31 CP1         -2.0060     2.0710     6.2040 c3         1 D16       0.209100
     32 HN1         -0.4960     0.0000    -0.8690 hn         1 D16       0.289800
     33 HM21         1.7660     0.8780    -1.8930 hc         1 D16       0.021700
     34 HM22         1.7920    -0.8910    -1.8810 hc         1 D16       0.021700
     35 HM23         3.1280     0.0180    -1.1600 hc         1 D16       0.021700
     36 H5          -0.0090    -0.2600     4.4530 ha         1 D16       0.127000
     37 H7          -3.7590    -0.2850     2.2100 ha         1 D16       0.143000
     38 H8          -2.7240     0.0150     0.3480 ha         1 D16       0.135000
     39 H91         -2.1600    -0.5110     5.6920 h1         1 D16       0.031200
     40 H92         -3.7060    -0.5110     4.8310 h1         1 D16       0.031200
     41 H15         -3.8240     3.9310     5.9420 ha         1 D16       0.114000
     42 H16         -6.0570     4.7500     5.0290 ha         1 D16       0.134000
     43 HN          -7.6930     1.1300     2.6930 hn         1 D16       0.157500
     44 HA          -9.5230     3.2470     1.7610 h1         1 D16       0.053700
     45 HB1         -9.4010     0.2570     1.2280 hc         1 D16       0.036700
     46 HB2        -10.5600     1.3620     0.4760 hc         1 D16       0.036700
     47 HG1         -7.5330     1.5660     0.2730 hc         1 D16      -0.001300
     48 HG2         -8.6920     2.6710    -0.4790 hc         1 D16      -0.001300
     49 HP11        -2.4940     2.4820     7.0800 h1         1 D16       0.001700
     50 HP12        -1.2410     1.3690     6.5130 h1         1 D16       0.001700
     51 HP13        -1.5520     2.8730     5.6340 h1         1 D16       0.001700
     52 C           -7.5910     3.0160     3.4660 c          1 D16       0.599700
@<TRIPOS>BOND
     1     1     2 1   
     2     1    12 1   
     3     1    32 1   
     4     2     3 1   
     5     2     4 2   
     6     3    33 1   
     7     3    34 1   
     8     3    35 1   
     9     4     5 1   
    10     5     6 2   
    11     5     7 1   
    12     7     8 ar  
    13     7    12 ar  
    14     8     9 ar  
    15     8    36 1   
    16     9    10 ar  
    17     9    13 1   
    18    10    11 ar  
    19    10    37 1   
    20    11    12 ar  
    21    11    38 1   
    22    13    14 1   
    23    13    39 1   
    24    13    40 1   
    25    14    17 1   
    26    14    31 1   
    27    15    16 1   
    28    15    19 2   
    29    15    52 1   
    30    16    17 1   
    31    17    18 2   
    32    18    19 1   
    33    18    41 1   
    34    19    42 1   
    35    20    52 2   
    36    21    22 1   
    37    21    43 1   
    38    21    52 1   
    39    22    23 1   
    40    22    28 1   
    41    22    44 1   
    42    23    24 1   
    43    23    45 1   
    44    23    46 1   
    45    24    25 1   
    46    24    47 1   
    47    24    48 1   
    48    25    26 1   
    49    25    27 1   
    50    28    29 1   
    51    28    30 1   
    52    31    49 1   
    53    31    50 1   
    54    31    51 1   
@<TRIPOS>SUBSTRUCTURE
     1 D16         1 TEMP              0 ****  ****    0 ROOT
