@<TRIPOS>MOLECULE
D17
   53    55     1     0     0
SMALL
bcc


@<TRIPOS>ATOM
      1 OE1          0.0000     0.0000     0.0000 o          1 D17      -0.918800
      2 CD           1.2080     0.0000     0.0000 c          1 D17       0.982600
      3 OE2          1.8790     0.0000     1.1630 o          1 D17      -0.918800
      4 CG           1.9620    -0.0060    -1.3050 c3         1 D17      -0.143400
      5 CB           0.9670    -0.0120    -2.4680 c3         1 D17      -0.012400
      6 CA           1.7320    -0.0180    -3.7940 c3         1 D17      -0.116300
      7 C            0.7570    -0.1480    -4.9360 c          1 D17       0.988600
      8 OXT         -0.0420    -1.2230    -5.0160 o          1 D17      -0.907300
      9 O            0.6950     0.7170    -5.7770 o          1 D17      -0.907300
     10 N            2.4820     1.2330    -3.9300 ns         1 D17      -0.080900
     11 CAU          3.5830     1.2760    -4.7060 c          1 D17       0.560700
     12 OBC          3.9540     0.2780    -5.2900 o          1 D17      -0.679100
     13 CAT          4.3400     2.5390    -4.8440 ca         1 D17      -0.098600
     14 CAQ          5.4820     2.5880    -5.6460 ca         1 D17      -0.033000
     15 CAS          3.9130     3.6890    -4.1780 ca         1 D17      -0.066000
     16 CAR          4.6230     4.8640    -4.3120 ca         1 D17      -0.119000
     17 CAP          5.7570     4.9040    -5.1050 ca         1 D17      -0.103000
     18 CAO          6.1820     3.7690    -5.7720 ca         1 D17      -0.168300
     19 CAN          7.4150     3.8240    -6.6370 c3         1 D17       0.220100
     20 NAY          7.0350     4.1880    -8.0050 nu         1 D17      -0.366600
     21 CAA          8.0120     4.3010    -8.9910 ca         1 D17       0.108600
     22 CAC          7.6490     4.6470   -10.2890 ca         1 D17      -0.208500
     23 CAE          8.6070     4.7600   -11.2640 ca         1 D17      -0.008000
     24 CAB          9.3480     4.0730    -8.6730 ca         1 D17      -0.208500
     25 CAG         10.3130     4.1850    -9.6410 ca         1 D17      -0.008000
     26 CAF          9.9520     4.5260   -10.9510 ca         1 D17      -0.236800
     27 CAH         10.9810     4.6440   -11.9910 ce         1 D17       0.195800
     28 CAI         12.1810     4.0280   -11.8330 cd         1 D17      -0.204600
     29 SBG         12.6630     2.8880   -10.5610 ss         1 D17      -0.150200
     30 CAL         14.3060     2.6640   -11.1870 cs         1 D17       0.315000
     31 SBH         15.5240     1.6630   -10.5190 s          1 D17      -0.518400
     32 NAX         14.4120     3.4270   -12.2810 ns         1 D17      -0.011500
     33 CAK         13.3740     4.1440   -12.6780 c          1 D17       0.601700
     34 OBE         13.4080     4.8520   -13.6680 o          1 D17      -0.632500
     35 HG1C         2.5840    -0.8910    -1.3580 hc         1 D17      -0.001300
     36 HG2C         2.5840     0.8780    -1.3670 hc         1 D17      -0.001300
     37 HB1C         0.3440     0.8730    -2.4140 hc         1 D17       0.037200
     38 HB2C         0.3450    -0.8960    -2.4060 hc         1 D17       0.037200
     39 HA           2.4200    -0.8550    -3.8100 h1         1 D17       0.054700
     40 H            2.1510     2.0650    -3.4840 hn         1 D17       0.158500
     41 HAQ          5.8160     1.7000    -6.1690 ha         1 D17       0.131000
     42 HAS          3.0260     3.6590    -3.5570 ha         1 D17       0.125000
     43 HAR          4.2940     5.7570    -3.7940 ha         1 D17       0.097000
     44 HAP          6.3110     5.8290    -5.2070 ha         1 D17       0.089000
     45 HAN1         7.8960     2.8530    -6.6420 h1         1 D17       0.019700
     46 HAN2         8.1000     4.5650    -6.2430 h1         1 D17       0.019700
     47 HAY          6.0770     4.3720    -8.2260 hn         1 D17       0.307800
     48 HAC          6.6090     4.8270   -10.5300 ha         1 D17       0.123000
     49 HAB          9.6260     3.8090    -7.6600 ha         1 D17       0.123000
     50 HAE          8.3240     5.0270   -12.2750 ha         1 D17       0.115500
     51 HAG         11.3520     4.0050    -9.3940 ha         1 D17       0.115500
     52 HAH1        10.8290     5.3210   -12.8230 ha         1 D17       0.113000
     53 HAX         15.2690     3.4500   -12.7990 hn         1 D17       0.192500
@<TRIPOS>BOND
     1     1     2 1   
     2     2     3 1   
     3     2     4 1   
     4     4     5 1   
     5     4    35 1   
     6     4    36 1   
     7     5     6 1   
     8     5    37 1   
     9     5    38 1   
    10     6     7 1   
    11     6    10 1   
    12     6    39 1   
    13     7     8 1   
    14     7     9 1   
    15    10    11 1   
    16    10    40 1   
    17    11    12 2   
    18    11    13 1   
    19    13    14 ar  
    20    13    15 ar  
    21    14    18 ar  
    22    14    41 1   
    23    15    16 ar  
    24    15    42 1   
    25    16    17 ar  
    26    16    43 1   
    27    17    18 ar  
    28    17    44 1   
    29    18    19 1   
    30    19    20 1   
    31    19    45 1   
    32    19    46 1   
    33    20    21 1   
    34    20    47 1   
    35    21    22 ar  
    36    21    24 ar  
    37    22    23 ar  
    38    22    48 1   
    39    23    26 ar  
    40    23    50 1   
    41    24    25 ar  
    42    24    49 1   
    43    25    26 ar  
    44    25    51 1   
    45    26    27 1   
    46    27    28 2   
    47    27    52 1   
    48    28    29 1   
    49    28    33 1   
    50    29    30 1   
    51    30    31 2   
    52    30    32 1   
    53    32    33 1   
    54    32    53 1   
    55    33    34 2   
@<TRIPOS>SUBSTRUCTURE
     1 D17         1 TEMP              0 ****  ****    0 ROOT
