@<TRIPOS>MOLECULE
molecule
   53    55     1     0     0
SMALL
bcc


@<TRIPOS>ATOM
      1 OE1          0.0000     0.0000     0.0000 o          1 D17      -0.872300
      2 CD           1.2080     0.0000     0.0000 c          1 D17       0.890600
      3 OE2          1.8790     0.0000     1.1630 o          1 D17      -0.872300
      4 CG           1.9620    -0.0060    -1.3050 c3         1 D17      -0.187400
      5 CB           0.9670    -0.0120    -2.4680 c3         1 D17      -0.059400
      6 CA           1.7320    -0.0180    -3.7940 c3         1 D17      -0.005300
      7 C            0.7570    -0.1480    -4.9360 c          1 D17       0.893600
      8 OXT         -0.0420    -1.2230    -5.0160 o          1 D17      -0.857800
      9 O            0.6950     0.7170    -5.7770 o          1 D17      -0.857800
     10 N            2.4820     1.2330    -3.9300 ns         1 D17      -0.508900
     11 CAU          3.5830     1.2760    -4.7060 c          1 D17       0.656700
     12 OBC          3.9540     0.2780    -5.2900 o          1 D17      -0.631100
     13 CAT          4.3400     2.5390    -4.8440 ca         1 D17      -0.101600
     14 CAQ          5.4820     2.5880    -5.6460 ca         1 D17      -0.064000
     15 CAS          3.9130     3.6890    -4.1780 ca         1 D17      -0.085000
     16 CAR          4.6230     4.8640    -4.3120 ca         1 D17      -0.147000
     17 CAP          5.7570     4.9040    -5.1050 ca         1 D17      -0.124000
     18 CAO          6.1820     3.7690    -5.7720 ca         1 D17      -0.155300
     19 CAN          7.4150     3.8240    -6.6370 c3         1 D17       0.281100
     20 NAY          7.0350     4.1880    -8.0050 nu         1 D17      -0.786600
     21 CAA          8.0120     4.3010    -8.9910 ca         1 D17       0.247600
     22 CAC          7.6490     4.6470   -10.2890 ca         1 D17      -0.220500
     23 CAE          8.6070     4.7600   -11.2640 ca         1 D17      -0.041500
     24 CAB          9.3480     4.0730    -8.6730 ca         1 D17      -0.220500
     25 CAG         10.3130     4.1850    -9.6410 ca         1 D17      -0.041500
     26 CAF          9.9520     4.5260   -10.9510 ca         1 D17      -0.206800
     27 CAH         10.9810     4.6440   -11.9910 ce         1 D17       0.105800
     28 CAI         12.1810     4.0280   -11.8330 cd         1 D17      -0.199600
     29 SBG         12.6630     2.8880   -10.5610 ss         1 D17      -0.048200
     30 CAL         14.3060     2.6640   -11.1870 cs         1 D17       0.423000
     31 SBH         15.5240     1.6630   -10.5190 s          1 D17      -0.498400
     32 NAX         14.4120     3.4270   -12.2810 ns         1 D17      -0.496500
     33 CAK         13.3740     4.1440   -12.6780 c          1 D17       0.695700
     34 OBE         13.4080     4.8520   -13.6680 o          1 D17      -0.602500
     35 HG1C         2.5840     0.8780    -1.3670 hc         1 D17       0.021200
     36 HG2C         2.5840    -0.8910    -1.3580 hc         1 D17       0.021200
     37 HB1C         0.3450    -0.8960    -2.4060 hc         1 D17       0.061700
     38 HB2C         0.3440     0.8730    -2.4140 hc         1 D17       0.061700
     39 HA           2.4200    -0.8550    -3.8100 h1         1 D17       0.069700
     40 H            2.1510     2.0650    -3.4840 hn         1 D17       0.300500
     41 HAQ          5.8160     1.7000    -6.1690 ha         1 D17       0.159000
     42 HAS          3.0260     3.6590    -3.5570 ha         1 D17       0.152000
     43 HAR          4.2940     5.7570    -3.7940 ha         1 D17       0.123000
     44 HAP          6.3110     5.8290    -5.2070 ha         1 D17       0.112000
     45 HAN1         7.8960     2.8530    -6.6420 h1         1 D17       0.045200
     46 HAN2         8.1000     4.5650    -6.2430 h1         1 D17       0.045200
     47 HAY          6.0770     4.3720    -8.2260 hn         1 D17       0.456800
     48 HAC          6.6090     4.8270   -10.5300 ha         1 D17       0.144000
     49 HAB          9.6260     3.8090    -7.6600 ha         1 D17       0.144000
     50 HAE          8.3240     5.0270   -12.2750 ha         1 D17       0.135000
     51 HAG         11.3520     4.0050    -9.3940 ha         1 D17       0.135000
     52 HAH1        10.8290     5.3210   -12.8230 ha         1 D17       0.156000
     53 HAX         15.2690     3.4500   -12.7990 hn         1 D17       0.354500
@<TRIPOS>BOND
     1     1     2 1
     2     2     3 1
     3     2     4 1
     4     4     5 1
     5     5     6 1
     6     6     7 1
     7     6    10 1
     8     7     8 1
     9     7     9 1
    10    10    11 1
    11    11    12 2
    12    11    13 1
    13    13    14 ar
    14    13    15 ar
    15    14    18 ar
    16    15    16 ar
    17    16    17 ar
    18    17    18 ar
    19    18    19 1
    20    19    20 1
    21    20    21 1
    22    21    22 ar
    23    21    24 ar
    24    22    23 ar
    25    23    26 ar
    26    24    25 ar
    27    25    26 ar
    28    26    27 1
    29    27    28 2
    30    28    29 1
    31    28    33 1
    32    29    30 1
    33    30    31 2
    34    30    32 1
    35    32    33 1
    36    33    34 2
    37     4    35 1
    38     4    36 1
    39     5    37 1
    40     5    38 1
    41     6    39 1
    42    10    40 1
    43    14    41 1
    44    15    42 1
    45    16    43 1
    46    17    44 1
    47    19    45 1
    48    19    46 1
    49    20    47 1
    50    22    48 1
    51    24    49 1
    52    23    50 1
    53    25    51 1
    54    27    52 1
    55    32    53 1
@<TRIPOS>SUBSTRUCTURE
     1 D17         1 TEMP              0 ****  ****    0 ROOT
