@<TRIPOS>MOLECULE
D18
   65    67     1     0     0
SMALL
bcc


@<TRIPOS>ATOM
      1 C10        -0.1110    0.3400   -0.0730 c3        1 D18     -0.153850
      2 C9          1.9400   -0.0940   -1.4340 c3        1 D18     -0.153850
      3 C8          1.2620   -0.3180   -0.0930 c3        1 D18      0.141000
      4 N2          2.1120    0.2360    1.0560 n4        1 D18     -0.811500
      5 C7          3.3010   -0.6170    1.4420 c3        1 D18      0.412500
      6 N1          2.9340   -1.8960    2.1830 n4        1 D18     -0.869600
      7 C1          6.1950    1.6200    3.7350 ca        1 D18     -0.023000
      8 C2          4.8870    1.4480    4.2310 ca        1 D18     -0.097500
      9 C3          3.9430    0.7320    3.5040 ca        1 D18     -0.079250
     10 C4          4.2830    0.1690    2.2630 ca        1 D18     -0.277300
     11 C5          5.5820    0.3350    1.7580 ca        1 D18     -0.079250
     12 C6          6.5240    1.0540    2.4860 ca        1 D18     -0.097500
     13 CA          7.2120    2.3500    4.4460 cc        1 D18      0.277200
     14 CB          8.5330    2.6220    4.0990 cd        1 D18     -0.171300
     15 CB'         9.1030    3.3780    5.1760 cd        1 D18     -0.171300
     16 CA'         8.1040    3.5370    6.1340 cc        1 D18      0.277200
     17 O1          6.9200    2.9100    5.7040 os        1 D18     -0.350800
     18 C1'         8.1360    4.2100    7.4070 ca        1 D18     -0.023000
     19 C2'         6.9990    4.3530    8.2260 ca        1 D18     -0.097500
     20 C3'         7.0820    5.0230    9.4410 ca        1 D18     -0.079250
     21 C4'         8.3060    5.5640    9.8690 ca        1 D18     -0.277300
     22 C5'         9.4460    5.4240    9.0630 ca        1 D18     -0.079250
     23 C6'         9.3600    4.7550    7.8460 ca        1 D18     -0.097500
     24 C7'         8.4470    6.2950   11.1740 c3        1 D18      0.412500
     25 N1'         8.2100    5.3270   12.3240 n4        1 D18     -0.869600
     26 N2'         7.5600    7.5230   11.2100 n4        1 D18     -0.811500
     27 C8'         8.1040    8.6830   12.0500 c3        1 D18      0.141000
     28 C9'         7.1940    9.8910   11.8750 c3        1 D18     -0.153850
     29 CAX         8.2380    8.3190   13.5150 c3        1 D18     -0.153850
     30 H101       -0.0520    1.4350   -0.2920 hc        1 D18      0.099367
     31 H102       -0.6440    0.1800    0.8960 hc        1 D18      0.099367
     32 H103       -0.7320   -0.1330   -0.8830 hc        1 D18      0.099367
     33 H91         2.0520    0.9950   -1.6690 hc        1 D18      0.099367
     34 H92         2.9380   -0.5910   -1.4970 hc        1 D18      0.099367
     35 H93         1.2860   -0.5410   -2.2320 hc        1 D18      0.099367
     36 H8          1.1470   -1.4250    0.1000 hx        1 D18      0.103200
     37 HN2         1.5070    0.4260    1.8640 hn        1 D18      0.476300
     38 H7          3.7780   -0.9550    0.4560 hx        1 D18      0.170700
     39 HN11        3.8140   -2.4240    2.3200 hn        1 D18      0.488967
     40 HN12        2.2780   -2.4840    1.6530 hn        1 D18      0.488967
     41 H3          2.9290    0.6170    3.9190 ha        1 D18      0.152000
     42 H5          5.8750   -0.0940    0.7840 ha        1 D18      0.152000
     43 H6          7.5420    1.1750    2.0730 ha        1 D18      0.184500
     44 HB          9.0620    2.3290    3.1900 ha        1 D18      0.198000
     45 HB'        10.1290    3.7490    5.2080 ha        1 D18      0.198000
     46 H2'         6.0350    3.9300    7.8930 ha        1 D18      0.184500
     47 H3'         6.1740    5.1240   10.0560 ha        1 D18      0.152000
     48 H5'        10.4200    5.8400    9.3750 ha        1 D18      0.152000
     49 H6'        10.2680    4.6540    7.2240 ha        1 D18      0.184500
     50 H7'         9.5210    6.6740   11.3050 hx        1 D18      0.170700
     51 HN'1        7.3080    4.8440   12.2240 hn        1 D18      0.488967
     52 HN'2        8.9570    4.6130   12.2780 hn        1 D18      0.488967
     53 HN2'        7.4880    7.8570   10.2320 hn        1 D18      0.476300
     54 H8'         9.1250    8.9200   11.6160 hx        1 D18      0.103200
     55 H9'1        7.0590   10.1690   10.8000 hc        1 D18      0.099367
     56 H9'2        7.6810   10.7660   12.3860 hc        1 D18      0.099367
     57 H9'3        6.1940    9.7330   12.3500 hc        1 D18      0.099367
     58 H1'1        7.2940    7.9070   13.9470 hc        1 D18      0.099367
     59 H1'2        8.4660    9.2650   14.0860 hc        1 D18      0.099367
     60 H1'3        9.0960    7.6280   13.6990 hc        1 D18      0.099367
     61 H22         2.5060    1.1430    0.7480 hn        1 D18      0.476300
     62 H13         2.5420   -1.6930    3.1120 hn        1 D18      0.488967
     63 H1'4        8.2530    5.7930   13.2420 hn        1 D18      0.488967
     64 H2'2        6.6080    7.3020   11.5260 hn        1 D18      0.476300
     65 H2          4.6170    1.8880    5.2070 ha        1 D18      0.184500
@<TRIPOS>BOND
     1    1    3 1   
     2    1   30 1   
     3    1   31 1   
     4    1   32 1   
     5    2    3 1   
     6    2   33 1   
     7    2   34 1   
     8    2   35 1   
     9    3    4 1   
    10    3   36 1   
    11    4    5 1   
    12    4   37 1   
    13    4   61 1   
    14    5    6 1   
    15    5   10 1   
    16    5   38 1   
    17    6   39 1   
    18    6   40 1   
    19    6   62 1   
    20    7    8 ar  
    21    7   12 ar  
    22    7   13 1   
    23    8    9 ar  
    24    8   65 1   
    25    9   10 ar  
    26    9   41 1   
    27   10   11 ar  
    28   11   12 ar  
    29   11   42 1   
    30   12   43 1   
    31   13   14 2   
    32   13   17 1   
    33   14   15 1   
    34   14   44 1   
    35   15   16 2   
    36   15   45 1   
    37   16   17 1   
    38   16   18 1   
    39   18   19 ar  
    40   18   23 ar  
    41   19   20 ar  
    42   19   46 1   
    43   20   21 ar  
    44   20   47 1   
    45   21   22 ar  
    46   21   24 1   
    47   22   23 ar  
    48   22   48 1   
    49   23   49 1   
    50   24   25 1   
    51   24   26 1   
    52   24   50 1   
    53   25   51 1   
    54   25   52 1   
    55   25   63 1   
    56   26   27 1   
    57   26   53 1   
    58   26   64 1   
    59   27   28 1   
    60   27   29 1   
    61   27   54 1   
    62   28   55 1   
    63   28   56 1   
    64   28   57 1   
    65   29   58 1   
    66   29   59 1   
    67   29   60 1   
@<TRIPOS>SUBSTRUCTURE
     1 D18         1 TEMP              0 ****  ****    0 ROOT
