@<TRIPOS>MOLECULE
D19
   61    65     1     0     0
SMALL
bcc


@<TRIPOS>ATOM
      1 C10         0.2160   -0.5100    0.5370 cx        1 D19     -0.080900
      2 C9          1.3660   -1.4350    0.7630 cx        1 D19     -0.080900
      3 C8          0.7300   -0.7220    1.9510 cx        1 D19     -0.089000
      4 N2          1.4740    0.3270    2.6720 n4        1 D19     -0.751000
      5 C7          0.5950    1.1470    3.6070 c3        1 D19      0.416500
      6 N1         -0.6310    1.7220    2.9140 n4        1 D19     -0.865600
      7 C1          2.8730    4.2820    5.5000 ca        1 D19     -0.022500
      8 C2          2.2720    3.2660    6.2620 ca        1 D19     -0.096750
      9 C3          1.5370    2.2560    5.6450 ca        1 D19     -0.079500
     10 C4          1.3880    2.2440    4.2500 ca        1 D19     -0.274300
     11 C5          1.9830    3.2570    3.4790 ca        1 D19     -0.079500
     12 C6          2.7150    4.2620    4.0950 ca        1 D19     -0.096750
     13 CA          3.6470    5.3410    6.0940 cc        1 D19      0.277700
     14 CB          4.3370    6.4010    5.5120 cd        1 D19     -0.172300
     15 CB'         4.9390    7.1460    6.5800 cd        1 D19     -0.172300
     16 CA'         4.5890    6.5100    7.7680 cc        1 D19      0.277700
     17 O1          3.7860    5.3880    7.4940 os        1 D19     -0.349800
     18 C1'         4.9160    6.8310    9.1340 ca        1 D19     -0.022500
     19 C2'         4.3990    6.1120   10.2300 ca        1 D19     -0.096750
     20 C3'         4.7350    6.4680   11.5310 ca        1 D19     -0.079500
     21 C4'         5.6000    7.5500   11.7680 ca        1 D19     -0.274300
     22 C5'         6.1240    8.2690   10.6830 ca        1 D19     -0.079500
     23 C6'         5.7840    7.9130    9.3820 ca        1 D19     -0.096750
     24 C7'         5.9930    7.9740   13.1510 c3        1 D19      0.416500
     25 N1'         6.7680    6.8670   13.8460 n4        1 D19     -0.865600
     26 N2'         4.7770    8.4380   13.9410 n4        1 D19     -0.751000
     27 C8'         5.1090    8.8410   15.3190 cx        1 D19     -0.089000
     28 C9'         4.0000    9.0530   16.3450 cx        1 D19     -0.080900
     29 CAX         4.9310    7.8950   16.4940 cx        1 D19     -0.080900
     30 H101       -0.7810   -0.9310    0.2860 hc        1 D19      0.132950
     31 H102        0.4020    0.4450    0.0070 hc        1 D19      0.132950
     32 H91         2.3760   -1.1450    0.4100 hc        1 D19      0.132950
     33 H92         1.2180   -2.5360    0.7000 hc        1 D19      0.132950
     34 H8          0.1390   -1.3420    2.6680 hx        1 D19      0.159700
     35 HN2         1.9680    0.9420    2.0090 hn        1 D19      0.484050
     36 H7          0.1960    0.4120    4.3900 hx        1 D19      0.167700
     37 HN11       -1.2790    2.0460    3.6510 hn        1 D19      0.489967
     38 HN12       -0.3790    2.5350    2.3350 hn        1 D19      0.489967
     39 H3          1.0780    1.4700    6.2700 ha        1 D19      0.151750
     40 H5          1.8830    3.2750    2.3820 ha        1 D19      0.151750
     41 H6          3.1780    5.0540    3.4790 ha        1 D19      0.184750
     42 HB          4.4230    6.6430    4.4520 ha        1 D19      0.197500
     43 HB'         5.5500    8.0420    6.4550 ha        1 D19      0.197500
     44 H2'         3.7190    5.2610   10.0480 ha        1 D19      0.184750
     45 H3'         4.3100    5.8880   12.3660 ha        1 D19      0.151750
     46 H5'         6.8060    9.1230   10.8410 ha        1 D19      0.151750
     47 H6'         6.2060    8.4900    8.5390 ha        1 D19      0.184750
     48 H7'         6.7020    8.8740   13.1140 hx        1 D19      0.167700
     49 HN'1        6.9240    7.0730   14.8440 hn        1 D19      0.489967
     50 HN'2        7.6840    6.7890   13.3720 hn        1 D19      0.489967
     51 HN2'        4.0440    7.7150   13.9380 hn        1 D19      0.484050
     52 H8'         5.9550    9.5710   15.3190 hx        1 D19      0.159700
     53 H9'1        4.0970    9.9370   17.0140 hc        1 D19      0.132950
     54 H9'2        2.9420    8.8700   16.0730 hc        1 D19      0.132950
     55 H1'1        4.5330    6.8730   16.3380 hc        1 D19      0.132950
     56 H1'2        5.7060    7.9170   17.2910 hc        1 D19      0.132950
     57 H22         2.1900   -0.1250    3.2700 hn        1 D19      0.484050
     58 H13        -1.1110    1.0200    2.3310 hn        1 D19      0.489967
     59 H1'3        6.2860    5.9630   13.7530 hn        1 D19      0.489967
     60 H2'2        4.4040    9.2640   13.4350 hn        1 D19      0.484050
     61 H2          2.3870    3.2680    7.3600 ha        1 D19      0.184750
@<TRIPOS>BOND
     1    1    2 1
     2    1    3 1
     3    1   30 1
     4    1   31 1
     5    2    3 1
     6    2   32 1
     7    2   33 1
     8    3    4 1
     9    3   34 1
    10    4    5 1
    11    4   35 1
    12    4   57 1
    13    5    6 1
    14    5   10 1
    15    5   36 1
    16    6   37 1
    17    6   38 1
    18    6   58 1
    19    7    8 ar
    20    7   12 ar
    21    7   13 1
    22    8    9 ar
    23    8   61 1
    24    9   10 ar
    25    9   39 1
    26   10   11 ar
    27   11   12 ar
    28   11   40 1
    29   12   41 1
    30   13   14 2
    31   13   17 1
    32   14   15 1
    33   14   42 1
    34   15   16 2
    35   15   43 1
    36   16   17 1
    37   16   18 1
    38   18   19 ar
    39   18   23 ar
    40   19   20 ar
    41   19   44 1
    42   20   21 ar
    43   20   45 1
    44   21   22 ar
    45   21   24 1
    46   22   23 ar
    47   22   46 1
    48   23   47 1
    49   24   25 1
    50   24   26 1
    51   24   48 1
    52   25   49 1
    53   25   50 1
    54   25   59 1
    55   26   27 1
    56   26   51 1
    57   26   60 1
    58   27   28 1
    59   27   29 1
    60   27   52 1
    61   28   29 1
    62   28   53 1
    63   28   54 1
    64   29   55 1
    65   29   56 1
@<TRIPOS>SUBSTRUCTURE
     1 D19         1 TEMP              0 ****  ****    0 ROOT
