@<TRIPOS>MOLECULE
molecule
   46    48     1     0     0
SMALL
bcc


@<TRIPOS>ATOM
      1 O3           0.0000     0.0000     0.0000 o          1 D1A      -0.216500
      2 N7           1.2180     0.0000     0.0000 no         1 D1A       0.301200
      3 O2           1.8270     0.0000     1.0550 o          1 D1A      -0.216500
      4 C3           1.9580    -0.0040    -1.2820 ca         1 D1A      -0.169200
      5 C2           1.2710    -0.0100    -2.4750 ca         1 D1A      -0.020000
      6 C4           3.3500     0.0010    -1.2840 ca         1 D1A       0.019800
      7 N1           4.2920     0.0120    -0.2830 na         1 D1A      -0.155400
      8 C8           5.5490     0.0140    -0.8560 cc         1 D1A      -0.150300
      9 C7           5.4230     0.0040    -2.2080 cd         1 D1A      -0.078200
     10 C5           4.0400    -0.0040    -2.5120 ca         1 D1A      -0.134800
     11 C6           3.3180    -0.0150    -3.7130 ca         1 D1A      -0.014000
     12 C1           1.9540    -0.0140    -3.6840 ca         1 D1A      -0.183000
     13 C9           6.8210     0.0240    -0.1180 c          1 D1A       0.702300
     14 O1           7.8760     0.0240    -0.7250 o          1 D1A      -0.570100
     15 N2           6.8190     0.0330     1.2290 ns         1 D1A      -0.476100
     16 C10          8.0230    -0.0670     1.9310 ca         1 D1A       0.112600
     17 C15          8.1770     0.5930     3.1440 ca         1 D1A      -0.155000
     18 C14          9.3620     0.4950     3.8380 ca         1 D1A      -0.057500
     19 C13         10.4120    -0.2680     3.3220 ca         1 D1A      -0.194900
     20 C12         10.2550    -0.9310     2.1010 ca         1 D1A      -0.057500
     21 C11          9.0630    -0.8340     1.4150 ca         1 D1A      -0.155000
     22 C16         11.6830    -0.3750     4.0610 ce         1 D1A       0.491900
     23 C17         12.8140    -1.1990     3.5020 c3         1 D1A      -0.197400
     24 N3          11.8280     0.2410     5.1930 n2         1 D1A      -0.419400
     25 N4          13.0350     0.1400     5.8960 nu         1 D1A      -0.516300
     26 C18         13.1900     0.7940     7.0980 c2         1 D1A       0.835100
     27 N6          14.3760     0.6940     7.7880 nz         1 D1A      -0.823600
     28 N5          12.2110     1.5070     7.5820 n2         1 D1A      -0.986100
     29 H2           0.2040    -0.0150    -2.6630 ha         1 D1A       0.175000
     30 H1           1.3750    -0.0210    -4.5990 ha         1 D1A       0.155000
     31 HA           4.0990     0.0180     0.6990 hn         1 D1A       0.324700
     32 H7           6.2350     0.0030    -2.9260 ha         1 D1A       0.181000
     33 H6           3.8470    -0.0180    -4.6580 ha         1 D1A       0.149000
     34 HB           5.9700     0.2210     1.7240 hn         1 D1A       0.332500
     35 H15          7.3610     1.1820     3.5460 ha         1 D1A       0.163000
     36 H11          8.9360    -1.3550     0.4750 ha         1 D1A       0.163000
     37 H14          9.4720     0.9890     4.7960 ha         1 D1A       0.148500
     38 H12         11.0440    -1.5720     1.7270 ha         1 D1A       0.148500
     39 H171        13.7190    -0.6050     3.4830 hc         1 D1A       0.068033
     40 H172        12.5680    -1.5140     2.4950 hc         1 D1A       0.068033
     41 H173        12.9670    -2.0720     4.1250 hc         1 D1A       0.068033
     42 H61N        14.5410    -0.2620     8.0310 hn         1 D1A       0.464133
     43 H62N        14.3240     1.2460     8.6210 hn         1 D1A       0.464133
     44 H5N         11.5340     1.0840     8.1860 hn         1 D1A       0.531400
     45 H4N         13.7810    -0.4190     5.5330 hn         1 D1A       0.414800
     46 H63         15.1250     1.0270     7.2130 hn         1 D1A       0.464133
@<TRIPOS>BOND
     1     1     2 1
     2     2     3 1
     3     2     4 1
     4     4     5 ar
     5     4     6 ar
     6     5    12 ar
     7     6     7 1
     8     6    10 ar
     9     7     8 1
    10     8     9 2
    11     8    13 1
    12     9    10 1
    13    10    11 ar
    14    11    12 ar
    15    13    14 2
    16    13    15 1
    17    15    16 1
    18    16    17 ar
    19    16    21 ar
    20    17    18 ar
    21    18    19 ar
    22    19    20 ar
    23    19    22 1
    24    20    21 ar
    25    22    23 1
    26    22    24 2
    27    24    25 1
    28    25    26 1
    29    26    27 1
    30    26    28 2
    31     5    29 1
    32    12    30 1
    33     7    31 1
    34     9    32 1
    35    11    33 1
    36    15    34 1
    37    17    35 1
    38    21    36 1
    39    18    37 1
    40    20    38 1
    41    23    39 1
    42    23    40 1
    43    23    41 1
    44    27    42 1
    45    27    43 1
    46    28    44 1
    47    25    45 1
    48    46    27 1
@<TRIPOS>SUBSTRUCTURE
     1 D1A         1 TEMP              0 ****  ****    0 ROOT
