@<TRIPOS>MOLECULE
D1A
   46    48     1     0     0
SMALL
bcc


@<TRIPOS>ATOM
      1 O3           0.0000     0.0000     0.0000 o          1 D1A      -0.462500
      2 N7           1.2180     0.0000     0.0000 no         1 D1A       1.058200
      3 O2           1.8270     0.0000     1.0550 o          1 D1A      -0.462500
      4 C3           1.9580    -0.0040    -1.2820 ca         1 D1A      -0.445200
      5 C2           1.2710    -0.0100    -2.4750 ca         1 D1A       0.047000
      6 C4           3.3500     0.0010    -1.2840 ca         1 D1A      -0.151200
      7 N1           4.2920     0.0120    -0.2830 na         1 D1A       0.385600
      8 C8           5.5490     0.0140    -0.8560 cc         1 D1A      -0.360300
      9 C7           5.4230     0.0040    -2.2080 cd         1 D1A      -0.031200
     10 C5           4.0400    -0.0040    -2.5120 ca         1 D1A      -0.155800
     11 C6           3.3180    -0.0150    -3.7130 ca         1 D1A       0.048000
     12 C1           1.9540    -0.0140    -3.6840 ca         1 D1A      -0.187000
     13 C9           6.8210     0.0240    -0.1180 c          1 D1A       0.622300
     14 O1           7.8760     0.0240    -0.7250 o          1 D1A      -0.614100
     15 N2           6.8190     0.0330     1.2290 ns         1 D1A      -0.041100
     16 C10          8.0230    -0.0670     1.9310 ca         1 D1A      -0.036400
     17 C15          8.1770     0.5930     3.1440 ca         1 D1A      -0.129000
     18 C14          9.3620     0.4950     3.8380 ca         1 D1A      -0.031500
     19 C13         10.4120    -0.2680     3.3220 ca         1 D1A      -0.204900
     20 C12         10.2550    -0.9310     2.1010 ca         1 D1A      -0.031500
     21 C11          9.0630    -0.8340     1.4150 ca         1 D1A      -0.129000
     22 C16         11.6830    -0.3750     4.0610 ce         1 D1A       0.491900
     23 C17         12.8140    -1.1990     3.5020 c3         1 D1A      -0.089400
     24 N3          11.8280     0.2410     5.1930 n2         1 D1A      -0.511400
     25 N4          13.0350     0.1400     5.8960 nu         1 D1A      -0.128300
     26 C18         13.1900     0.7940     7.0980 c2         1 D1A       0.249100
     27 N6          14.3760     0.6940     7.7880 nz         1 D1A       0.125400
     28 N5          12.2110     1.5070     7.5820 n2         1 D1A      -0.539100
     29 H2           0.2230    -0.0150    -2.7490 ha         1 D1A       0.138000
     30 H1           1.4010    -0.0210    -4.6160 ha         1 D1A       0.123000
     31 HA           4.0990     0.0180     0.6990 hn         1 D1A       0.146700
     32 H7           6.2350     0.0030    -2.9260 ha         1 D1A       0.146000
     33 H6           3.8580    -0.0200    -4.6520 ha         1 D1A       0.108000
     34 HB           5.9700     0.2220     1.7240 hn         1 D1A       0.172500
     35 H15          7.3630     1.1870     3.5430 ha         1 D1A       0.134000
     36 H11          8.9360    -1.3550     0.4740 ha         1 D1A       0.134000
     37 H14          9.4890     1.0310     4.7710 ha         1 D1A       0.118500
     38 H12         11.0840    -1.4780     1.6700 ha         1 D1A       0.118500
     39 H171        13.1590    -1.8970     4.2550 hc         1 D1A       0.030367
     40 H172        12.4660    -1.7480     2.6340 hc         1 D1A       0.030367
     41 H173        13.6290    -0.5460     3.2130 hc         1 D1A       0.030367
     42 H61N        14.2060     0.8290     8.7650 hn         1 D1A       0.225133
     43 H62N        15.0120     1.3950     7.4610 hn         1 D1A       0.225133
     44 H5N         12.3220     1.9830     8.4550 hn         1 D1A       0.337400
     45 H4N         13.7970    -0.3810     5.5090 hn         1 D1A       0.273800
     46 H63         14.7740    -0.2120     7.6390 hn         1 D1A       0.225133
@<TRIPOS>BOND
     1     1     2 1   
     2     2     3 1   
     3     2     4 1   
     4     4     5 ar  
     5     4     6 ar  
     6     5    12 ar  
     7     5    29 1   
     8     6     7 1   
     9     6    10 ar  
    10     7     8 1   
    11     7    31 1   
    12     8     9 2   
    13     8    13 1   
    14     9    10 1   
    15     9    32 1   
    16    10    11 ar  
    17    11    12 ar  
    18    11    33 1   
    19    12    30 1   
    20    13    14 2   
    21    13    15 1   
    22    15    16 1   
    23    15    34 1   
    24    16    17 ar  
    25    16    21 ar  
    26    17    18 ar  
    27    17    35 1   
    28    18    19 ar  
    29    18    37 1   
    30    19    20 ar  
    31    19    22 1   
    32    20    21 ar  
    33    20    38 1   
    34    21    36 1   
    35    22    23 1   
    36    22    24 2   
    37    23    39 1   
    38    23    40 1   
    39    23    41 1   
    40    24    25 1   
    41    25    26 1   
    42    25    45 1   
    43    26    27 1   
    44    26    28 2   
    45    27    42 1   
    46    27    43 1   
    47    27    46 1   
    48    28    44 1   
@<TRIPOS>SUBSTRUCTURE
     1 D1A         1 TEMP              0 ****  ****    0 ROOT
