@<TRIPOS>MOLECULE
molecule
   44    47     1     0     0
SMALL
bcc


@<TRIPOS>ATOM
      1 C1           0.0000     0.0000     0.0000 cc         1 D1B       0.017900
      2 S2           1.7840     0.0000     0.0000 ss         1 D1B      -0.127800
      3 C3           2.0410     0.0000     1.7660 cc         1 D1B      -0.056000
      4 C4           0.7430    -0.0010     2.2490 cd         1 D1B      -0.098000
      5 C5          -0.2910     0.0050     1.3530 cd         1 D1B      -0.143000
      6 C6           3.3040    -0.0010     2.5140 cc         1 D1B       0.561400
      7 N7           3.4080     0.0040     3.8260 nd         1 D1B      -0.578100
      8 C8           4.7070    -0.0010     4.1810 ca         1 D1B       0.147400
      9 C9           5.4660     0.0000     2.9950 ca         1 D1B      -0.110200
     10 N10          4.5550    -0.0000     1.9540 na         1 D1B      -0.244300
     11 C11          5.3610    -0.0020     5.4200 ca         1 D1B      -0.042000
     12 C12          6.7220    -0.0000     5.4760 ca         1 D1B      -0.151000
     13 C13          7.4810     0.0010     4.3000 ca         1 D1B      -0.197900
     14 C14          6.8480     0.0010     3.0580 ca         1 D1B      -0.012000
     15 C15         -0.9280     0.0010    -1.1480 ca         1 D1B       0.063000
     16 C16         -0.6450    -0.7760    -2.2750 ca         1 D1B      -0.103500
     17 C17         -1.5080    -0.7750    -3.3420 ca         1 D1B      -0.077500
     18 C18         -2.6680    -0.0000    -3.3000 ca         1 D1B      -0.192900
     19 C19         -2.9480     0.7810    -2.1780 ca         1 D1B      -0.077500
     20 C20         -2.0890     0.7770    -1.1090 ca         1 D1B      -0.103500
     21 C21          8.9580     0.0010     4.3750 ce         1 D1B       0.550800
     22 N22          9.5850     0.0010     5.6020 nz         1 D1B      -0.800600
     23 N23          9.6660     0.0020     3.2810 n2         1 D1B      -0.695100
     24 C24         -3.5980     0.0010    -4.4500 ce         1 D1B       0.539800
     25 N25         -3.3350    -0.7230    -5.5020 n2         1 D1B      -0.677100
     26 N26         -4.7420     0.7660    -4.4120 nz         1 D1B      -0.801600
     27 H4           0.5500     0.0000     3.3150 ha         1 D1B       0.181000
     28 H5          -1.3190     0.0060     1.6970 ha         1 D1B       0.162000
     29 H10          4.7660    -0.1500     0.9870 hn         1 D1B       0.321700
     30 H11          4.7820    -0.0020     6.3360 ha         1 D1B       0.172000
     31 H12          7.2210    -0.0000     6.4370 ha         1 D1B       0.112000
     32 H14          7.4350     0.0010     2.1470 ha         1 D1B       0.167000
     33 H16          0.2550    -1.3780    -2.3060 ha         1 D1B       0.165500
     34 H17         -1.2910    -1.3790    -4.2140 ha         1 D1B       0.144500
     35 H19         -3.8480     1.3830    -2.1470 ha         1 D1B       0.144500
     36 H20         -2.3050     1.3830    -0.2380 ha         1 D1B       0.165500
     37 H221         9.3170     0.8180     6.1140 hn         1 D1B       0.466467
     38 H222        10.5770     0.0010     5.4700 hn         1 D1B       0.466467
     39 H23         10.6650     0.0020     3.3300 hn         1 D1B       0.435400
     40 H25         -3.9630    -0.7230    -6.2810 hn         1 D1B       0.438400
     41 H261        -4.4960     1.7300    -4.3040 hn         1 D1B       0.467133
     42 H262        -5.2530     0.6460    -5.2640 hn         1 D1B       0.467133
     43 H223         9.3190    -0.8170     6.1130 hn         1 D1B       0.466467
     44 H263        -5.3150     0.4720    -3.6450 hn         1 D1B       0.467133
@<TRIPOS>BOND
     1     1     2 1
     2     1     5 2
     3     1    15 1
     4     2     3 1
     5     3     4 2
     6     3     6 1
     7     4     5 1
     8     4    27 1
     9     5    28 1
    10     6     7 2
    11     6    10 1
    12     7     8 1
    13     8     9 ar
    14     8    11 ar
    15     9    10 1
    16     9    14 ar
    17    10    29 1
    18    11    12 ar
    19    11    30 1
    20    12    13 ar
    21    12    31 1
    22    13    14 ar
    23    13    21 1
    24    14    32 1
    25    15    16 ar
    26    15    20 ar
    27    16    17 ar
    28    16    33 1
    29    17    18 ar
    30    17    34 1
    31    18    19 ar
    32    18    24 1
    33    19    20 ar
    34    19    35 1
    35    20    36 1
    36    21    22 1
    37    21    23 2
    38    22    37 1
    39    22    38 1
    40    23    39 1
    41    24    25 2
    42    24    26 1
    43    25    40 1
    44    26    41 1
    45    26    42 1
    46    43    22 1
    47    44    26 1
@<TRIPOS>SUBSTRUCTURE
     1 D1B         1 TEMP              0 ****  ****    0 ROOT
