@<TRIPOS>MOLECULE
D1B
   44    47     1     0     0
SMALL
bcc


@<TRIPOS>ATOM
      1 C1           0.0000     0.0000     0.0000 cc         1 D1B       0.068900
      2 S2           1.7840     0.0000     0.0000 ss         1 D1B      -0.268800
      3 C3           2.0410     0.0000     1.7660 cc         1 D1B       0.003000
      4 C4           0.7430    -0.0010     2.2490 cd         1 D1B      -0.073000
      5 C5          -0.2910     0.0050     1.3530 cd         1 D1B      -0.106000
      6 C6           3.3040    -0.0010     2.5140 cc         1 D1B       0.351400
      7 N7           3.4080     0.0040     3.8260 nd         1 D1B      -0.486100
      8 C8           4.7070    -0.0010     4.1810 ca         1 D1B       0.109400
      9 C9           5.4660     0.0000     2.9950 ca         1 D1B      -0.283200
     10 N10          4.5550    -0.0000     1.9540 na         1 D1B       0.293700
     11 C11          5.3610    -0.0020     5.4200 ca         1 D1B       0.013000
     12 C12          6.7220    -0.0000     5.4760 ca         1 D1B      -0.127000
     13 C13          7.4810     0.0010     4.3000 ca         1 D1B      -0.228900
     14 C14          6.8480     0.0010     3.0580 ca         1 D1B      -0.007000
     15 C15         -0.9280     0.0010    -1.1480 ca         1 D1B       0.074000
     16 C16         -0.6450    -0.7760    -2.2750 ca         1 D1B      -0.063500
     17 C17         -1.5080    -0.7750    -3.3420 ca         1 D1B      -0.064000
     18 C18         -2.6680    -0.0000    -3.3000 ca         1 D1B      -0.227900
     19 C19         -2.9480     0.7810    -2.1780 ca         1 D1B      -0.064000
     20 C20         -2.0890     0.7770    -1.1090 ca         1 D1B      -0.063500
     21 C21          8.9580     0.0010     4.3750 ce         1 D1B       0.222800
     22 N22          9.5850     0.0010     5.6020 nz         1 D1B       0.189400
     23 N23          9.6660     0.0020     3.2810 n2         1 D1B      -0.499100
     24 C24         -3.5980     0.0010    -4.4500 ce         1 D1B       0.207800
     25 N25         -3.3350    -0.7230    -5.5020 n2         1 D1B      -0.477100
     26 N26         -4.7420     0.7660    -4.4120 nz         1 D1B       0.190400
     27 H4           0.5500     0.0000     3.3150 ha         1 D1B       0.145000
     28 H5          -1.3190     0.0060     1.6970 ha         1 D1B       0.129000
     29 H10          4.7660    -0.1500     0.9870 hn         1 D1B       0.144700
     30 H11          4.7820    -0.0020     6.3360 ha         1 D1B       0.133000
     31 H12          7.2210    -0.0000     6.4370 ha         1 D1B       0.090000
     32 H14          7.4350     0.0010     2.1470 ha         1 D1B       0.107000
     33 H16          0.2550    -1.3780    -2.3060 ha         1 D1B       0.133500
     34 H17         -1.2910    -1.3790    -4.2140 ha         1 D1B       0.102500
     35 H19         -3.8480     1.3830    -2.1470 ha         1 D1B       0.102500
     36 H20         -2.3050     1.3830    -0.2380 ha         1 D1B       0.133500
     37 H221         9.3170     0.8180     6.1140 hn         1 D1B       0.223467
     38 H222         9.3170    -0.8170     6.1140 hn         1 D1B       0.223467
     39 H23          9.2120     0.0020     2.3890 hn         1 D1B       0.376400
     40 H25         -2.5040    -1.2800    -5.5320 hn         1 D1B       0.380400
     41 H261        -4.4960     1.7300    -4.3040 hn         1 D1B       0.223467
     42 H262        -5.2530     0.6470    -5.2650 hn         1 D1B       0.223467
     43 H223        10.5770     0.0030     5.4690 hn         1 D1B       0.223467
     44 H263        -5.3090     0.4820    -3.6370 hn         1 D1B       0.223467
@<TRIPOS>BOND
     1     1     2 1   
     2     1     5 2   
     3     1    15 1   
     4     2     3 1   
     5     3     4 2   
     6     3     6 1   
     7     4     5 1   
     8     4    27 1   
     9     5    28 1   
    10     6     7 2   
    11     6    10 1   
    12     7     8 1   
    13     8     9 ar  
    14     8    11 ar  
    15     9    10 1   
    16     9    14 ar  
    17    10    29 1   
    18    11    12 ar  
    19    11    30 1   
    20    12    13 ar  
    21    12    31 1   
    22    13    14 ar  
    23    13    21 1   
    24    14    32 1   
    25    15    16 ar  
    26    15    20 ar  
    27    16    17 ar  
    28    16    33 1   
    29    17    18 ar  
    30    17    34 1   
    31    18    19 ar  
    32    18    24 1   
    33    19    20 ar  
    34    19    35 1   
    35    20    36 1   
    36    21    22 1   
    37    21    23 2   
    38    22    37 1   
    39    22    38 1   
    40    22    43 1   
    41    23    39 1   
    42    24    25 2   
    43    24    26 1   
    44    25    40 1   
    45    26    41 1   
    46    26    42 1   
    47    26    44 1   
@<TRIPOS>SUBSTRUCTURE
     1 D1B         1 TEMP              0 ****  ****    0 ROOT
