@<TRIPOS>MOLECULE
D1C
   50    51     1     0     0
SMALL
bcc


@<TRIPOS>ATOM
      1 FAS          0.0000     0.0000     0.0000 f          1 D1C      -0.131900
      2 CAQ          1.3520     0.0000     0.0000 ca         1 D1C       0.065900
      3 CAR          2.0440     0.0000     1.1990 ca         1 D1C      -0.110000
      4 CAM          3.4280     0.0000     1.1990 ca         1 D1C       0.154900
      5 FAT          4.1040    -0.0010     2.3680 f          1 D1C      -0.081900
      6 CAN          4.1190     0.0000    -0.0020 ca         1 D1C       0.110900
      7 FAU          5.4710    -0.0000    -0.0040 f          1 D1C      -0.086900
      8 CAO          3.4250     0.0000    -1.2000 ca         1 D1C      -0.062000
      9 CAP          2.0440    -0.0060    -1.1990 ca         1 D1C      -0.188300
     10 CAV          1.2900    -0.0060    -2.5030 c3         1 D1C       0.042900
     11 CAW          0.8230    -1.4280    -2.8230 c3         1 D1C      -0.078500
     12 NAY         -0.1500    -1.8630    -1.8120 nz         1 D1C       0.037400
     13 CAX          0.1680    -1.4520    -4.2040 c3         1 D1C       0.222800
     14 NAZ         -0.3850    -2.7840    -4.4600 n7         1 D1C      -0.645100
     15 SBA         -1.4650    -3.0100    -5.6950 s6         1 D1C       1.130800
     16 OBB         -1.7810    -4.3950    -5.7040 o          1 D1C      -0.541800
     17 OBC         -2.4460    -1.9900    -5.5620 o          1 D1C      -0.541800
     18 NAL         -0.6620    -2.7040    -7.1110 n7         1 D1C      -0.595100
     19 CAA          0.4460    -3.5680    -7.5260 c3         1 D1C       0.276100
     20 CAB          0.7590    -3.3210    -8.9790 ca         1 D1C      -0.032300
     21 CAC          1.6830    -2.3560    -9.3320 ca         1 D1C      -0.090000
     22 CAD          1.9700    -2.1290   -10.6650 ca         1 D1C       0.019500
     23 CAE          1.3320    -2.8660   -11.6450 ca         1 D1C      -0.221500
     24 SAH          1.6920    -2.5710   -13.3450 sy         1 D1C       0.943200
     25 OAJ          2.9880    -1.9890   -13.3850 o          1 D1C      -0.486300
     26 OAK          1.3530    -3.7630   -14.0390 o          1 D1C      -0.486300
     27 NAI          0.6410    -1.4070   -13.8730 nz         1 D1C      -0.130500
     28 CAF          0.4080    -3.8310   -11.2920 ca         1 D1C       0.019500
     29 CAG          0.1250    -4.0630    -9.9580 ca         1 D1C      -0.090000
     30 H1           1.5030     0.0350     2.1370 ha         1 D1C       0.160000
     31 H2           3.9650    -0.0020    -2.1390 ha         1 D1C       0.137000
     32 H3           0.4300     0.6470    -2.4230 hc         1 D1C       0.059700
     33 H4           1.9390     0.3470    -3.2950 hc         1 D1C       0.059700
     34 H5           1.6740    -2.0980    -2.8160 hx         1 D1C       0.091700
     35 H6          -0.8290    -1.1410    -1.6700 hn         1 D1C       0.240800
     36 H7          -0.6080    -2.6950    -2.1260 hn         1 D1C       0.240800
     37 H9           0.9080    -1.2170    -4.9590 h1         1 D1C       0.048700
     38 H10         -0.6280    -0.7180    -4.2390 h1         1 D1C       0.048700
     39 H11         -0.0890    -3.5630    -3.9060 hn         1 D1C       0.351800
     40 H12         -0.9620    -1.9550    -7.7040 hn         1 D1C       0.360800
     41 H13          1.3200    -3.3470    -6.9250 h1         1 D1C       0.029700
     42 H14          0.1660    -4.6060    -7.3880 h1         1 D1C       0.029700
     43 H15          2.1830    -1.7780    -8.5640 ha         1 D1C       0.132500
     44 H16          2.6950    -1.3730   -10.9420 ha         1 D1C       0.133000
     45 H17          0.7720    -0.5710   -13.3390 hn         1 D1C       0.315467
     46 H18          0.8140    -1.2150   -14.8400 hn         1 D1C       0.315467
     47 H19         -0.0900    -4.4110   -12.0600 ha         1 D1C       0.133000
     48 H20         -0.6000    -4.8190    -9.6810 ha         1 D1C       0.132500
     49 HAY3         0.3240    -2.0440    -0.9490 hn         1 D1C       0.240800
     50 HAI3        -0.3000    -1.7290   -13.7590 hn         1 D1C       0.315467
@<TRIPOS>BOND
     1     1     2 1   
     2     2     3 ar  
     3     2     9 ar  
     4     3     4 ar  
     5     3    30 1   
     6     4     5 1   
     7     4     6 ar  
     8     6     7 1   
     9     6     8 ar  
    10     8     9 ar  
    11     8    31 1   
    12     9    10 1   
    13    10    11 1   
    14    10    32 1   
    15    10    33 1   
    16    11    12 1   
    17    11    13 1   
    18    11    34 1   
    19    12    35 1   
    20    12    36 1   
    21    12    49 1   
    22    13    14 1   
    23    13    37 1   
    24    13    38 1   
    25    14    15 1   
    26    14    39 1   
    27    15    16 2   
    28    15    17 2   
    29    15    18 1   
    30    18    19 1   
    31    18    40 1   
    32    19    20 1   
    33    19    41 1   
    34    19    42 1   
    35    20    21 ar  
    36    20    29 ar  
    37    21    22 ar  
    38    21    43 1   
    39    22    23 ar  
    40    22    44 1   
    41    23    24 1   
    42    23    28 ar  
    43    24    25 2   
    44    24    26 2   
    45    24    27 1   
    46    27    45 1   
    47    27    46 1   
    48    27    50 1   
    49    28    29 ar  
    50    28    47 1   
    51    29    48 1   
@<TRIPOS>SUBSTRUCTURE
     1 D1C         1 TEMP              0 ****  ****    0 ROOT
