@<TRIPOS>MOLECULE
D1D
   16    16     1     0     0
SMALL
bcc


@<TRIPOS>ATOM
      1 S1         -0.0200    0.0780   -0.0810 ss        1 D1D     -0.153100
      2 C1          1.7360   -0.0290   -0.0760 c3        1 D1D     -0.045800
      3 C2          2.3050   -0.0780    1.3340 c3        1 D1D      0.125100
      4 O2          3.6870   -0.3690    1.1860 oh        1 D1D     -0.600800
      5 C3          2.1320    1.2660    2.0780 c3        1 D1D      0.125100
      6 O3          2.8940    1.1190    3.2710 oh        1 D1D     -0.600800
      7 C4          0.6820    1.5660    2.4240 c3        1 D1D     -0.045800
      8 S4         -0.2900    1.9040    0.9960 ss        1 D1D     -0.153100
      9 H1C1        2.2090    0.8040   -0.6500 h1        1 D1D      0.095950
     10 H1C2        1.9800   -0.9890   -0.6050 h1        1 D1D      0.095950
     11 H2          1.8120   -0.8950    1.9330 h1        1 D1D      0.063700
     12 HA          4.0770   -0.3430    2.0710 ho        1 D1D      0.419500
     13 H3          2.5650    2.0980    1.4530 h1        1 D1D      0.063700
     14 HB          2.9290    1.9850    3.6930 ho        1 D1D      0.419500
     15 H4C1        0.2560    0.7260    3.0260 h1        1 D1D      0.095950
     16 H4C2        0.6220    2.4960    3.0460 h1        1 D1D      0.095950
@<TRIPOS>BOND
     1    1    2 1   
     2    1    8 1   
     3    2    3 1   
     4    2    9 1   
     5    2   10 1   
     6    3    4 1   
     7    3    5 1   
     8    3   11 1   
     9    4   12 1   
    10    5    6 1   
    11    5    7 1   
    12    5   13 1   
    13    6   14 1   
    14    7    8 1   
    15    7   15 1   
    16    7   16 1   
@<TRIPOS>SUBSTRUCTURE
     1 D1D         1 TEMP              0 ****  ****    0 ROOT
