@<TRIPOS>MOLECULE
molecule
   16    16     1     0     0
SMALL
bcc


@<TRIPOS>ATOM
      1 S1           0.0000     0.0000     0.0000 ss         1 D1D      -0.173100
      2 C1           1.8140     0.0000     0.0000 c3         1 D1D      -0.029300
      3 C2           2.3280     0.0000     1.4360 c3         1 D1D       0.142100
      4 O2           3.7290    -0.2850     1.4330 oh         1 D1D      -0.586800
      5 C3           2.0930     1.3510     2.0950 c3         1 D1D       0.142100
      6 O3           2.8810     1.4350     3.2850 oh         1 D1D      -0.586800
      7 C4           0.6230     1.5330     2.4530 c3         1 D1D      -0.029300
      8 S4          -0.3480     1.7880     0.9420 ss         1 D1D      -0.173100
      9 H1C1         2.1730     0.8860    -0.5100 h1         1 D1D       0.090200
     10 H1C2         2.1720    -0.8860    -0.5100 h1         1 D1D       0.090200
     11 H2           1.8060    -0.7640     1.9990 h1         1 D1D       0.056700
     12 HA           3.8640    -1.1970     1.6280 ho         1 D1D       0.409000
     13 H3           2.3900     2.1360     1.4100 h1         1 D1D       0.056700
     14 HB           3.2440     2.3020     3.3610 ho         1 D1D       0.409000
     15 H4C1         0.5140     2.3960     3.0990 h1         1 D1D       0.090200
     16 H4C2         0.2650     0.6470     2.9640 h1         1 D1D       0.090200
@<TRIPOS>BOND
     1     1     2 1
     2     1     8 1
     3     2     3 1
     4     2     9 1
     5     2    10 1
     6     3     4 1
     7     3     5 1
     8     3    11 1
     9     4    12 1
    10     5     6 1
    11     5     7 1
    12     5    13 1
    13     6    14 1
    14     7     8 1
    15     7    15 1
    16     7    16 1
@<TRIPOS>SUBSTRUCTURE
     1 D1D         1 TEMP              0 ****  ****    0 ROOT
