@<TRIPOS>MOLECULE
D1F
   50    51     1     0     0
SMALL
bcc


@<TRIPOS>ATOM
      1 N1           0.0000     0.0000     0.0000 n          1 D1F       0.062000
      2 C2           1.3430     0.0000     0.0000 c          1 D1F       0.625500
      3 O2           1.9330     0.0030    -1.0630 o          1 D1F      -0.682500
      4 N3           2.0530     0.0000     1.1410 ns         1 D1F      -0.177500
      5 C4           1.4250    -0.0020     2.3350 c          1 D1F       0.596700
      6 O4           2.0620    -0.0030     3.3730 o          1 D1F      -0.641500
      7 C5          -0.0460    -0.0030     2.3580 cc         1 D1F      -0.088900
      8 C6          -0.7110    -0.0020     1.1650 cd         1 D1F      -0.083400
      9 C7          -0.7620    -0.0050     3.5990 cg         1 D1F      -0.135300
     10 C8          -1.3590    -0.0230     4.6080 c1         1 D1F      -0.077100
     11 C9          -1.7150     0.3640     5.8750 c3         1 D1F       0.032700
     12 C1'         -0.7170     0.0070    -1.2770 c3         1 D1F       0.240500
     13 C10         -0.6950     0.8480     7.1010 c3         1 D1F      -0.077400
     14 C11         -0.1780     2.4560     6.6980 c3         1 D1F      -0.099400
     15 C12          1.3260     2.5570     6.6980 c3         1 D1F       0.020600
     16 C13          1.7120     2.1300     7.8780 c3         1 D1F       0.005900
     17 C2'         -0.4360     1.3200    -2.0130 c3         1 D1F       0.093100
     18 O2'         -0.9300     2.4160    -1.2400 oh         1 D1F      -0.590800
     19 C3'         -1.1400     1.2950    -3.3730 c3         1 D1F       0.171100
     20 O3'         -0.8240     2.4860    -4.0970 oh         1 D1F      -0.648800
     21 C4'         -0.6610     0.0730    -4.1620 c3         1 D1F       0.198100
     22 O4'         -1.3650    -0.0020    -5.4030 oh         1 D1F      -0.666800
     23 C5'         -0.9330    -1.1930    -3.3430 c3         1 D1F       0.215100
     24 O5'         -0.2760    -1.0900    -2.0790 os         1 D1F      -0.366600
     25 C6'         -0.4030    -2.4130    -4.0970 c3         1 D1F       0.064400
     26 O6'         -0.7600    -3.6020    -3.3900 oh         1 D1F      -0.567800
     27 HN3          2.8780     0.3500     1.5860 hn         1 D1F       0.239500
     28 H6          -1.7450    -0.3140     1.0820 h4         1 D1F       0.139000
     29 H9          -2.4390     1.1690     5.9170 hc         1 D1F       0.017700
     30 H9A         -2.0900    -0.4650     6.4620 hc         1 D1F       0.017700
     31 H1'         -1.7820    -0.0840    -1.0990 h2         1 D1F       0.031700
     32 H10         -1.1610     0.7320     8.0720 hc         1 D1F       0.047700
     33 H10A         0.1850     0.3770     6.6810 hc         1 D1F       0.047700
     34 H11         -0.8380     2.7450     5.8890 hc         1 D1F       0.014700
     35 H11A        -0.7120     2.7720     7.5860 hc         1 D1F       0.014700
     36 H12          1.3610     3.6370     6.6250 hc         1 D1F       0.041200
     37 H12A         1.4170     2.0100     5.7680 hc         1 D1F       0.041200
     38 H13          1.9130     1.1090     8.1770 hc         1 D1F      -0.002967
     39 H13A         1.1380     2.3930     8.7580 hc         1 D1F      -0.002967
     40 H13B         2.5530     2.7490     8.1670 hc         1 D1F      -0.002967
     41 H2'          0.6320     1.4280    -2.1620 h1         1 D1F       0.068700
     42 HO2'        -0.5220     3.2090    -1.5440 ho         1 D1F       0.406000
     43 H3'         -2.2110     1.2300    -3.2230 h1         1 D1F       0.015700
     44 HO3'        -1.3420     3.2660    -4.2050 ho         1 D1F       0.425000
     45 H4'          0.4030     0.1590    -4.3480 h1         1 D1F       0.032700
     46 HO4'        -1.3580     0.5530    -6.1650 ho         1 D1F       0.440000
     47 H5'         -2.0000    -1.2950    -3.1860 h1         1 D1F       0.014700
     48 H6'         -0.0540    -2.0440    -5.0540 h1         1 D1F       0.066200
     49 H6'A        -1.2840    -2.8980    -4.5010 h1         1 D1F       0.066200
     50 HO6'        -0.4540    -4.4580    -3.6420 ho         1 D1F       0.400000
@<TRIPOS>BOND
     1     1     2 1   
     2     1     8 1   
     3     1    12 1   
     4     2     3 2   
     5     2     4 1   
     6     4     5 1   
     7     4    27 1   
     8     5     6 2   
     9     5     7 1   
    10     7     8 2   
    11     7     9 1   
    12     8    28 1   
    13     9    10 3   
    14    10    11 1   
    15    11    13 1   
    16    11    29 1   
    17    11    30 1   
    18    12    17 1   
    19    12    24 1   
    20    12    31 1   
    21    13    14 1   
    22    13    32 1   
    23    13    33 1   
    24    14    15 1   
    25    14    34 1   
    26    14    35 1   
    27    15    16 1   
    28    15    36 1   
    29    15    37 1   
    30    16    38 1   
    31    16    39 1   
    32    16    40 1   
    33    17    18 1   
    34    17    19 1   
    35    17    41 1   
    36    18    42 1   
    37    19    20 1   
    38    19    21 1   
    39    19    43 1   
    40    20    44 1   
    41    21    22 1   
    42    21    23 1   
    43    21    45 1   
    44    22    46 1   
    45    23    24 1   
    46    23    25 1   
    47    23    47 1   
    48    25    26 1   
    49    25    48 1   
    50    25    49 1   
    51    26    50 1   
@<TRIPOS>SUBSTRUCTURE
     1 D1F         1 TEMP              0 ****  ****    0 ROOT
