@<TRIPOS>MOLECULE
D1G
   30    31     1     0     0
SMALL
bcc


@<TRIPOS>ATOM
      1 C_1        -0.0770    0.0270   -0.1010 ca        1 D1G     -0.302800
      2 C_2         1.1700   -0.6220   -0.0900 ca        1 D1G     -0.055000
      3 C_3         1.9790   -0.5100    1.0370 ca        1 D1G     -0.245300
      4 C_4         1.5140    0.2510    2.1280 ca        1 D1G      0.436200
      5 N_1         0.3230    0.8810    2.1380 nb        1 D1G     -0.649000
      6 C_5        -0.4530    0.7680    1.0480 ca        1 D1G      0.443200
      7 C_6        -0.9730   -0.0520   -1.2210 cc        1 D1G      0.405200
      8 C_7        -2.3130    0.2910   -1.3870 cd        1 D1G     -0.272300
      9 C_8        -2.6630   -0.0210   -2.7440 cd        1 D1G     -0.132300
     10 C_9        -1.5250   -0.5370   -3.3430 cc        1 D1G      0.085000
     11 O_1        -0.4630   -0.5670   -2.4190 os        1 D1G     -0.373800
     12 C10        -1.2480   -1.1110   -4.6630 c3        1 D1G      0.115500
     13 N_2        -0.4470   -0.1620   -5.5320 n4        1 D1G     -0.688400
     14 C11         0.9910   -0.1800   -5.1600 c3        1 D1G      0.080100
     15 C12        -0.6250   -0.4930   -6.9680 c3        1 D1G      0.080100
     16 H_2         1.4920   -1.2140   -0.9600 ha        1 D1G      0.143000
     17 H_3         2.9580   -1.0070    1.0850 ha        1 D1G      0.161000
     18 H_4         2.1250    0.3640    3.0450 h4        1 D1G      0.045100
     19 H_5        -1.4240    1.2960    1.0890 h4        1 D1G      0.034100
     20 H_7        -2.9820    0.7050   -0.6340 ha        1 D1G      0.191000
     21 H_8        -3.6460    0.1180   -3.1940 ha        1 D1G      0.179000
     22 H101       -2.2240   -1.3230   -5.1900 hx        1 D1G      0.116200
     23 H102       -0.6550   -2.0670   -4.5720 hx        1 D1G      0.116200
     24 H111        1.0870    0.0050   -4.0540 hx        1 D1G      0.105533
     25 H112        1.4330   -1.1810   -5.4110 hx        1 D1G      0.105533
     26 H113        1.5320    0.6230   -5.7290 hx        1 D1G      0.105533
     27 H121        0.0090    0.1950   -7.5900 hx        1 D1G      0.105533
     28 H122       -0.3120   -1.5550   -7.1510 hx        1 D1G      0.105533
     29 H123       -1.7040   -0.3650   -7.2520 hx        1 D1G      0.105533
     30 H_21       -0.8050    0.7900   -5.3670 hn        1 D1G      0.453800
@<TRIPOS>BOND
     1    1    2 ar  
     2    1    6 ar  
     3    1    7 1   
     4    2    3 ar  
     5    2   16 1   
     6    3    4 ar  
     7    3   17 1   
     8    4    5 ar  
     9    4   18 1   
    10    5    6 ar  
    11    6   19 1   
    12    7    8 2   
    13    7   11 1   
    14    8    9 1   
    15    8   20 1   
    16    9   10 2   
    17    9   21 1   
    18   10   11 1   
    19   10   12 1   
    20   12   13 1   
    21   12   22 1   
    22   12   23 1   
    23   13   14 1   
    24   13   15 1   
    25   13   30 1   
    26   14   24 1   
    27   14   25 1   
    28   14   26 1   
    29   15   27 1   
    30   15   28 1   
    31   15   29 1   
@<TRIPOS>SUBSTRUCTURE
     1 D1G         1 TEMP              0 ****  ****    0 ROOT
