@<TRIPOS>MOLECULE
D1H
   46    49     1     0     0
SMALL
bcc


@<TRIPOS>ATOM
      1 O6          0.1730    0.8430   -0.2910 o         1 D1H     -0.627500
      2 C6          1.3000    0.3450   -0.1100 c         1 D1H      0.766100
      3 C5          1.9420    0.2090    1.1850 cc        1 D1H     -0.349200
      4 N7          1.5040    0.5490    2.4690 na        1 D1H     -0.148900
      5 CAA         0.2510    1.1350    2.8190 c3        1 D1H      0.009600
      6 C8          2.5380    0.1930    3.3340 cc        1 D1H      0.443400
      7 N9          3.6110   -0.3520    2.6990 nd        1 D1H     -0.685000
      8 C4          3.2520   -0.3490    1.3420 cd        1 D1H      0.485200
      9 N3          3.9700   -0.7890    0.2410 n         1 D1H     -0.418300
     10 CAC         5.2800   -1.3630    0.4030 c3        1 D1H      0.090300
     11 C2          3.3680   -0.7010   -1.0380 c         1 D1H      0.813500
     12 O2          3.9870   -1.1250   -2.0370 o         1 D1H     -0.632500
     13 N1          2.0750   -0.1310   -1.1910 n         1 D1H     -0.481400
     14 CAK         1.5480   -0.0420   -2.5410 c3        1 D1H      0.074000
     15 CAL         1.1940   -1.4240   -3.1490 c3        1 D1H      0.074000
     16 NBB         0.2800   -1.3350   -4.2730 n         1 D1H     -0.481400
     17 CAP        -1.0430   -1.8110   -4.1310 c         1 D1H      0.766100
     18 OAF        -1.4410   -2.3090   -3.0620 o         1 D1H     -0.627500
     19 CAV        -1.8530   -1.6750   -5.3280 cc        1 D1H     -0.349200
     20 NAX        -3.1870   -2.0140   -5.5810 na        1 D1H     -0.148900
     21 CAB        -4.1090   -2.6000   -4.6620 c3        1 D1H      0.009600
     22 CAJ        -3.4300   -1.6580   -6.9060 cc        1 D1H      0.443400
     23 NAN        -2.3480   -1.1140   -7.5270 nd        1 D1H     -0.685000
     24 CAT        -1.3450   -1.1170   -6.5450 cd        1 D1H      0.485200
     25 NAZ        -0.0330   -0.6770   -6.6280 n         1 D1H     -0.418300
     26 CAD         0.4730   -0.1030   -7.8480 c3        1 D1H      0.090300
     27 CAR         0.7830   -0.7650   -5.4740 c         1 D1H      0.813500
     28 OAH         1.9580   -0.3410   -5.5200 o         1 D1H     -0.632500
     29 HAA1        0.4230    2.1200    3.3310 h1        1 D1H      0.071033
     30 HAA2       -0.3590    1.3000    1.8880 h1        1 D1H      0.071033
     31 HAA3       -0.3070    0.4520    3.5140 h1        1 D1H      0.071033
     32 H8          2.4770    0.3430    4.4190 h5        1 D1H      0.070100
     33 HAC1        5.9440   -0.6310    0.9360 h1        1 D1H      0.063700
     34 HAC2        5.2070   -2.3030    1.0140 h1        1 D1H      0.063700
     35 HAC3        5.7160   -1.6030   -0.6040 h1        1 D1H      0.063700
     36 HAK1        2.3300    0.4360   -3.2010 h1        1 D1H      0.092200
     37 HAK2        0.6360    0.6200   -2.5110 h1        1 D1H      0.092200
     38 HAL1        2.1540   -1.9010   -3.5050 h1        1 D1H      0.092200
     39 HAL2        0.7190   -2.0870   -2.3700 h1        1 D1H      0.092200
     40 HAB1       -4.9890   -1.9170   -4.5190 h1        1 D1H      0.071033
     41 HAB2       -3.5990   -2.7650   -3.6720 h1        1 D1H      0.071033
     42 HAB3       -4.4700   -3.5850   -5.0650 h1        1 D1H      0.071033
     43 HAJ        -4.4040   -1.8080   -7.3880 h5        1 D1H      0.070100
     44 HAD1        1.5630    0.1380   -7.7300 h1        1 D1H      0.063700
     45 HAD2       -0.0960    0.8360   -8.0860 h1        1 D1H      0.063700
     46 HAD3        0.3370   -0.8360   -8.6880 h1        1 D1H      0.063700
@<TRIPOS>BOND
     1    1    2 2
     2    2    3 1
     3    2   13 1
     4    3    4 1
     5    3    8 2
     6    4    5 1
     7    4    6 1
     8    5   29 1
     9    5   30 1
    10    5   31 1
    11    6    7 2
    12    6   32 1
    13    7    8 1
    14    8    9 1
    15    9   10 1
    16    9   11 1
    17   10   33 1
    18   10   34 1
    19   10   35 1
    20   11   12 2
    21   11   13 1
    22   13   14 1
    23   14   15 1
    24   14   36 1
    25   14   37 1
    26   15   16 1
    27   15   38 1
    28   15   39 1
    29   16   17 1
    30   16   27 1
    31   17   18 2
    32   17   19 1
    33   19   20 1
    34   19   24 2
    35   20   21 1
    36   20   22 1
    37   21   40 1
    38   21   41 1
    39   21   42 1
    40   22   23 2
    41   22   43 1
    42   23   24 1
    43   24   25 1
    44   25   26 1
    45   25   27 1
    46   26   44 1
    47   26   45 1
    48   26   46 1
    49   27   28 2
@<TRIPOS>SUBSTRUCTURE
     1 D1H         1 TEMP              0 ****  ****    0 ROOT
