@<TRIPOS>MOLECULE
D1I
   50    52     1     0     0
SMALL
bcc


@<TRIPOS>ATOM
      1 N1           0.0000     0.0000     0.0000 n          1 D1I       0.114000
      2 C2           1.3440     0.0000     0.0000 c          1 D1I       0.702900
      3 O2           1.9360    -0.0000    -1.0670 o          1 D1I      -0.674500
      4 N3           2.0490     0.0000     1.1290 nc         1 D1I      -0.300400
      5 C4           1.4420     0.0000     2.3060 cd         1 D1I       0.366700
      6 C5           0.0230     0.0010     2.3470 cd         1 D1I      -0.354300
      7 O5           1.8700     0.0020     3.5780 os         1 D1I      -0.306800
      8 C6          -0.6860     0.0000     1.1670 cc         1 D1I      -0.030400
      9 C7          -0.3260     0.0010     3.7740 cd         1 D1I      -0.237300
     10 C8           0.8350     0.0010     4.4400 cc         1 D1I       0.297000
     11 C9           0.9650     0.0020     5.9410 c3         1 D1I      -0.032700
     12 C1'         -0.7280     0.0060    -1.2710 c3         1 D1I       0.223500
     13 C10          1.1350    -1.4350     6.4380 c3         1 D1I      -0.031400
     14 C11          1.2680    -1.4340     7.9620 c3         1 D1I      -0.028400
     15 C12          1.4370    -2.8710     8.4600 c3         1 D1I      -0.027400
     16 C13          1.5690    -2.8710     9.9840 c3         1 D1I       0.006900
     17 C2'         -0.4510     1.3170    -2.0120 c3         1 D1I       0.107100
     18 O2'         -0.9350     2.4150    -1.2350 oh         1 D1I      -0.594800
     19 C3'         -1.1670     1.2900    -3.3660 c3         1 D1I       0.149100
     20 O3'         -0.8540     2.4790    -4.0950 oh         1 D1I      -0.582800
     21 C4'         -0.6960     0.0660    -4.1560 c3         1 D1I       0.139100
     22 O4'         -1.4100    -0.0090    -5.3910 oh         1 D1I      -0.584800
     23 C5'         -0.9640    -1.1970    -3.3330 c3         1 D1I       0.175100
     24 O5'         -0.2940    -1.0940    -2.0740 os         1 D1I      -0.364600
     25 C6'         -0.4410    -2.4200    -4.0890 c3         1 D1I       0.225400
     26 O6'         -0.7930    -3.6080    -3.3760 oh         1 D1I      -0.586800
     27 H6          -1.7700     0.0000     1.1730 h4         1 D1I       0.135000
     28 H7          -1.1550     0.6020     4.1290 ha         1 D1I       0.137000
     29 H19          1.8290     0.5890     6.2280 hc         1 D1I       0.027700
     30 H29          0.0740     0.4330     6.3800 hc         1 D1I       0.027700
     31 H1'         -1.7910    -0.0830    -1.0840 h2         1 D1I       0.028700
     32 H110         2.0270    -1.8660     5.9980 hc         1 D1I       0.024200
     33 H210         0.2710    -2.0210     6.1510 hc         1 D1I       0.024200
     34 H111         2.1320    -0.8480     8.2500 hc         1 D1I       0.015200
     35 H211         0.3770    -1.0020     8.4020 hc         1 D1I       0.015200
     36 H112         0.5720    -3.4570     8.1730 hc         1 D1I       0.013700
     37 H212         2.3280    -3.3030     8.0200 hc         1 D1I       0.013700
     38 H113         1.6900    -3.8880    10.3370 hc         1 D1I       0.000700
     39 H213         0.6780    -2.4390    10.4240 hc         1 D1I       0.000700
     40 H313         2.4340    -2.2840    10.2710 hc         1 D1I       0.000700
     41 H2'          0.6150     1.4220    -2.1700 h1         1 D1I       0.073700
     42 HO2'        -0.3520     3.1500    -1.3320 ho         1 D1I       0.411000
     43 H3'         -2.2360     1.2280    -3.2070 h1         1 D1I       0.020700
     44 HO3'        -1.6490     2.9500    -4.2840 ho         1 D1I       0.400000
     45 H4'          0.3660     0.1500    -4.3510 h1         1 D1I       0.036700
     46 HO4'        -0.8750     0.3360    -6.0850 ho         1 D1I       0.402000
     47 H5'         -2.0290    -1.2980    -3.1660 h1         1 D1I       0.025700
     48 H16'        -0.8820    -2.4480    -5.0780 h1         1 D1I       0.003700
     49 H26'         0.6370    -2.3570    -4.1760 h1         1 D1I       0.003700
     50 HO6'        -0.5130    -4.3630    -3.8660 ho         1 D1I       0.392000
@<TRIPOS>BOND
     1     1     2 1   
     2     1     8 1   
     3     1    12 1   
     4     2     3 2   
     5     2     4 1   
     6     4     5 2   
     7     5     6 1   
     8     5     7 1   
     9     6     8 2   
    10     6     9 1   
    11     7    10 1   
    12     8    27 1   
    13     9    10 2   
    14     9    28 1   
    15    10    11 1   
    16    11    13 1   
    17    11    29 1   
    18    11    30 1   
    19    12    17 1   
    20    12    24 1   
    21    12    31 1   
    22    13    14 1   
    23    13    32 1   
    24    13    33 1   
    25    14    15 1   
    26    14    34 1   
    27    14    35 1   
    28    15    16 1   
    29    15    36 1   
    30    15    37 1   
    31    16    38 1   
    32    16    39 1   
    33    16    40 1   
    34    17    18 1   
    35    17    19 1   
    36    17    41 1   
    37    18    42 1   
    38    19    20 1   
    39    19    21 1   
    40    19    43 1   
    41    20    44 1   
    42    21    22 1   
    43    21    23 1   
    44    21    45 1   
    45    22    46 1   
    46    23    24 1   
    47    23    25 1   
    48    23    47 1   
    49    25    26 1   
    50    25    48 1   
    51    25    49 1   
    52    26    50 1   
@<TRIPOS>SUBSTRUCTURE
     1 D1I         1 TEMP              0 ****  ****    0 ROOT
