@<TRIPOS>MOLECULE
molecule
   44    45     1     0     0
SMALL
bcc


@<TRIPOS>ATOM
      1 N1           0.0000     0.0000     0.0000 n          1 D1J      -0.346000
      2 C2           1.3420     0.0000     0.0000 c          1 D1J       0.813500
      3 O2           1.9330     0.0010    -1.0630 o          1 D1J      -0.648500
      4 N3           2.0530     0.0000     1.1410 ns         1 D1J      -0.559500
      5 C4           1.4240    -0.0010     2.3360 c          1 D1J       0.707700
      6 O4           2.0620    -0.0010     3.3730 o          1 D1J      -0.599500
      7 C5          -0.0450    -0.0010     2.3590 cc         1 D1J      -0.106900
      8 C6          -0.7110    -0.0010     1.1660 cd         1 D1J       0.055600
      9 C7          -0.7610    -0.0020     3.5990 cg         1 D1J      -0.149300
     10 C8          -1.3650    -0.0000     4.6050 c1         1 D1J      -0.092100
     11 C9          -2.2210     0.0260     6.1070 c3         1 D1J       0.068700
     12 C1'         -0.7170     0.0060    -1.2770 c3         1 D1J       0.340500
     13 C10         -2.6360    -1.3000     6.3960 c3         1 D1J      -0.106400
     14 C11         -3.3890    -1.6950     7.7420 c3         1 D1J      -0.116100
     15 C2'         -0.4300     1.3150    -2.0180 c3         1 D1J       0.084100
     16 O2'         -0.9150     2.4160    -1.2470 oh         1 D1J      -0.605800
     17 C3'         -1.1340     1.2880    -3.3770 c3         1 D1J       0.106100
     18 O3'         -0.8110     2.4740    -4.1070 oh         1 D1J      -0.602800
     19 C4'         -0.6610     0.0600    -4.1620 c3         1 D1J       0.102100
     20 O4'         -1.3660    -0.0150    -5.4030 oh         1 D1J      -0.602800
     21 C5'         -0.9410    -1.2000    -3.3380 c3         1 D1J       0.156100
     22 O5'         -0.2820    -1.0970    -2.0740 os         1 D1J      -0.392600
     23 C6'         -0.4170    -2.4260    -4.0870 c3         1 D1J       0.152400
     24 O6'         -0.7800    -3.6110    -3.3760 oh         1 D1J      -0.601800
     25 HN3          3.0530     0.0000     1.1050 hn         1 D1J       0.366500
     26 H6          -1.7940    -0.0010     1.1450 h4         1 D1J       0.176000
     27 H19         -1.5780     0.1520     6.9700 hc         1 D1J       0.054700
     28 H29         -2.8860     0.8090     6.4510 hc         1 D1J       0.054700
     29 H1'         -1.7820    -0.0780    -1.0990 h2         1 D1J       0.069700
     30 H110        -3.4000    -1.6170     5.6960 hc         1 D1J       0.043700
     31 H210        -1.9840    -2.1590     6.2900 hc         1 D1J       0.043700
     32 H111        -3.2030    -2.5710     8.3510 hc         1 D1J       0.037033
     33 H211        -4.2400    -1.0360     7.8670 hc         1 D1J       0.037033
     34 H311        -2.8240    -1.0650     8.4180 hc         1 D1J       0.037033
     35 H2'          0.6380     1.4160    -2.1680 h1         1 D1J       0.094700
     36 HO2'        -0.3730     3.1720    -1.4030 ho         1 D1J       0.422000
     37 H3'         -2.2050     1.2300    -3.2270 h1         1 D1J       0.056700
     38 HO3'        -1.6030     2.9420    -4.3130 ho         1 D1J       0.415000
     39 H4'          0.4030     0.1390    -4.3490 h1         1 D1J       0.068700
     40 HO4'        -0.8220     0.3230    -6.0940 ho         1 D1J       0.416000
     41 H5'         -2.0080    -1.2960    -3.1790 h1         1 D1J       0.061700
     42 H16'         0.6620    -2.3680    -4.1650 h1         1 D1J       0.041700
     43 H26'        -0.8490    -2.4540    -5.0800 h1         1 D1J       0.041700
     44 HO6'        -0.4970    -4.3680    -3.8620 ho         1 D1J       0.406000
@<TRIPOS>BOND
     1    18    17 1
     2    20    19 1
     3    17    19 1
     4    17    15 1
     5    19    21 1
     6    16    15 1
     7    15    12 1
     8    24    23 1
     9    21    23 1
    10    21    22 1
    11    12    22 1
    12    12     1 1
    13     1     8 1
    14     1     2 1
    15     8     7 2
    16     3     2 2
    17     2     4 1
    18     7     9 1
    19     7     5 1
    20     9    10 3
    21    10    11 1
    22     4     5 1
    23     5     6 2
    24    11    13 1
    25    13    14 1
    26     4    25 1
    27     8    26 1
    28    11    27 1
    29    11    28 1
    30    12    29 1
    31    13    30 1
    32    13    31 1
    33    14    32 1
    34    14    33 1
    35    14    34 1
    36    15    35 1
    37    16    36 1
    38    17    37 1
    39    18    38 1
    40    19    39 1
    41    20    40 1
    42    21    41 1
    43    23    42 1
    44    23    43 1
    45    24    44 1
@<TRIPOS>SUBSTRUCTURE
     1 D1J         1 TEMP              0 ****  ****    0 ROOT
