@<TRIPOS>MOLECULE
D1K
   44    46     1     0     0
SMALL
bcc


@<TRIPOS>ATOM
      1 N1         -0.0010    0.7390   -0.0690 n         1 D1K     -0.360000
      2 C2          1.1900    1.5410    0.1340 c         1 D1K      0.833900
      3 O2          1.5750    2.2780   -0.7950 o         1 D1K     -0.624500
      4 N3          1.8850    1.5360    1.3740 nc        1 D1K     -0.327400
      5 C4          1.3630    0.7630    2.3040 cd        1 D1K      0.373700
      6 C5          0.1640   -0.0780    2.1640 cd        1 D1K     -0.303300
      7 O5          1.8830    0.6110    3.5920 os        1 D1K     -0.367800
      8 C6         -0.4610   -0.0780    0.9490 cc        1 D1K      0.091600
      9 C7         -0.0040   -0.7340    3.4470 cd        1 D1K     -0.225300
     10 C8          1.0140   -0.3090    4.2550 cc        1 D1K      0.301000
     11 C9          1.4110   -0.5870    5.6450 c3        1 D1K     -0.125700
     12 C1'        -0.6320    0.5430   -1.3690 c3        1 D1K      0.277500
     13 C10         0.4660   -1.5610    6.3210 c3        1 D1K     -0.078400
     14 C11         0.8930   -1.8280    7.7410 c3        1 D1K     -0.095100
     15 C2'        -0.3220    1.5750   -2.4840 c3        1 D1K      0.101100
     16 O2'        -0.7750    2.8600   -2.1190 oh        1 D1K     -0.609800
     17 C3'        -1.1400    1.1730   -3.7260 c3        1 D1K      0.101100
     18 O3'        -0.8270    2.0110   -4.8240 oh        1 D1K     -0.603800
     19 C4'        -0.7720   -0.2590   -4.1480 c3        1 D1K      0.121100
     20 O4'        -1.6290   -0.7090   -5.1810 oh        1 D1K     -0.595800
     21 C5'        -0.9660   -1.2110   -2.9590 c3        1 D1K      0.107100
     22 O5'        -0.2170   -0.7620   -1.8280 os        1 D1K     -0.448600
     23 C6'        -0.4230   -2.6070   -3.2850 c3        1 D1K      0.139400
     24 O6'        -0.6730   -3.5080   -2.2300 oh        1 D1K     -0.593800
     25 H6         -1.3410   -0.7120    0.7300 h4        1 D1K      0.172000
     26 H7         -0.8000   -1.4310    3.6990 ha        1 D1K      0.172000
     27 H9          2.4580   -1.0000    5.6500 hc        1 D1K      0.074700
     28 H9A         1.4380    0.3820    6.2170 hc        1 D1K      0.074700
     29 H1'        -1.7540    0.5320   -1.1970 h2        1 D1K      0.065700
     30 H10        -0.5750   -1.1430    6.3090 hc        1 D1K      0.046200
     31 H10A        0.4440   -2.5230    5.7440 hc        1 D1K      0.046200
     32 H11         1.9200   -2.2660    7.7690 hc        1 D1K      0.039033
     33 H11A        0.8980   -0.8830    8.3360 hc        1 D1K      0.039033
     34 H11B        0.1890   -2.5470    8.2250 hc        1 D1K      0.039033
     35 H2'         0.7750    1.5730   -2.7340 h1        1 D1K      0.102700
     36 HO2'       -0.0560    3.3000   -1.6430 ho        1 D1K      0.443000
     37 H3'        -2.2410    1.2460   -3.5040 h1        1 D1K      0.061700
     38 HO3'       -0.9460    2.9210   -4.5190 ho        1 D1K      0.430000
     39 H4'         0.2970   -0.2820   -4.5000 h1        1 D1K      0.067700
     40 HO4'       -1.5730   -0.0490   -5.8870 ho        1 D1K      0.428000
     41 H5'        -2.0560   -1.2730   -2.6880 h1        1 D1K      0.068700
     42 H6'        -0.9810   -3.0130   -4.1710 h1        1 D1K      0.068200
     43 H6'A        0.6750   -2.5490   -3.5060 h1        1 D1K      0.068200
     44 HO6'       -0.1700   -3.1960   -1.4670 ho        1 D1K      0.408000
@<TRIPOS>BOND
     1    1    2 1   
     2    1    8 1   
     3    1   12 1   
     4    2    3 2   
     5    2    4 1   
     6    4    5 2   
     7    5    6 1   
     8    5    7 1   
     9    6    8 2   
    10    6    9 1   
    11    7   10 1   
    12    8   25 1   
    13    9   10 2   
    14    9   26 1   
    15   10   11 1   
    16   11   13 1   
    17   11   27 1   
    18   11   28 1   
    19   12   15 1   
    20   12   22 1   
    21   12   29 1   
    22   13   14 1   
    23   13   30 1   
    24   13   31 1   
    25   14   32 1   
    26   14   33 1   
    27   14   34 1   
    28   15   16 1   
    29   15   17 1   
    30   15   35 1   
    31   16   36 1   
    32   17   18 1   
    33   17   19 1   
    34   17   37 1   
    35   18   38 1   
    36   19   20 1   
    37   19   21 1   
    38   19   39 1   
    39   20   40 1   
    40   21   22 1   
    41   21   23 1   
    42   21   41 1   
    43   23   24 1   
    44   23   42 1   
    45   23   43 1   
    46   24   44 1   
@<TRIPOS>SUBSTRUCTURE
     1 D1K         1 TEMP              0 ****  ****    0 ROOT
