@<TRIPOS>MOLECULE
D1L
   32    33     1     0     0
SMALL
bcc


@<TRIPOS>ATOM
      1 O1A         2.9680   -0.4450   -1.2620 o         1 D1L     -0.819800
      2 C1          2.3970    0.2790   -0.4080 c         1 D1L      0.902600
      3 O1B         2.1700    1.5160   -0.5340 o         1 D1L     -0.819800
      4 C2          1.8720   -0.3800    0.9030 c3        1 D1L      0.007100
      5 C2A         1.1420   -1.6710    0.5960 c3        1 D1L     -0.082100
      6 O2          2.9460   -0.7730    1.7940 os        1 D1L     -0.321900
      7 C3          3.5270    0.2060    2.5470 ca        1 D1L      0.177100
      8 C4          4.3280   -0.2650    3.6120 ca        1 D1L     -0.192000
      9 C5          4.9580    0.6390    4.4560 ca        1 D1L     -0.099500
     10 C6          3.3850    1.5890    2.3220 ca        1 D1L     -0.192000
     11 C7          4.0180    2.4900    3.1690 ca        1 D1L     -0.099500
     12 C8          4.7910    2.0110    4.2340 ca        1 D1L     -0.016900
     13 O8          5.5320    2.9130    5.0130 os        1 D1L     -0.229200
     14 C9          4.8860    3.4300    6.1180 ca        1 D1L      0.153100
     15 C10         3.5410    3.1650    6.4200 ca        1 D1L     -0.179000
     16 C11         2.9510    3.7260    7.5450 ca        1 D1L     -0.090000
     17 C12         3.7030    4.5590    8.3800 ca        1 D1L     -0.023600
     18 CL12        2.9830    5.2480    9.7610 cl        1 D1L     -0.113400
     19 C13         5.0410    4.8340    8.0930 ca        1 D1L     -0.099000
     20 C14         5.6410    4.2720    6.9630 ca        1 D1L     -0.018600
     21 CL14        7.2720    4.6320    6.6530 cl        1 D1L     -0.079400
     22 H2          1.2040    0.3400    1.4470 h1        1 D1L      0.031700
     23 H2A1        1.8010   -2.3300   -0.0200 hc        1 D1L      0.035700
     24 H2A2        0.8570   -2.2060    1.5320 hc        1 D1L      0.035700
     25 H2A3        0.2240   -1.4290    0.0110 hc        1 D1L      0.035700
     26 H4          4.4490   -1.3480    3.7520 ha        1 D1L      0.178500
     27 H5          5.5880    0.2890    5.2850 ha        1 D1L      0.135500
     28 H6          2.8060    1.9490    1.4460 ha        1 D1L      0.178500
     29 H7          3.9270    3.5720    2.9980 ha        1 D1L      0.135500
     30 H10         2.9570    2.5100    5.7530 ha        1 D1L      0.169000
     31 H11         1.8950    3.5150    7.7740 ha        1 D1L      0.146000
     32 H13         5.6270    5.4930    8.7540 ha        1 D1L      0.152000
@<TRIPOS>BOND
     1    1    2 1   
     2    2    3 1   
     3    2    4 1   
     4    4    5 1   
     5    4    6 1   
     6    4   22 1   
     7    5   23 1   
     8    5   24 1   
     9    5   25 1   
    10    6    7 1   
    11    7    8 ar  
    12    7   10 ar  
    13    8    9 ar  
    14    8   26 1   
    15    9   12 ar  
    16    9   27 1   
    17   10   11 ar  
    18   10   28 1   
    19   11   12 ar  
    20   11   29 1   
    21   12   13 1   
    22   13   14 1   
    23   14   15 ar  
    24   14   20 ar  
    25   15   16 ar  
    26   15   30 1   
    27   16   17 ar  
    28   16   31 1   
    29   17   18 1   
    30   17   19 ar  
    31   19   20 ar  
    32   19   32 1   
    33   20   21 1   
@<TRIPOS>SUBSTRUCTURE
     1 D1L         1 TEMP              0 ****  ****    0 ROOT
