@<TRIPOS>MOLECULE
molecule
   32    33     1     0     0
SMALL
bcc


@<TRIPOS>ATOM
      1 O1A          0.0000     0.0000     0.0000 o          1 D1L      -0.826800
      2 C1           1.3420     0.0000     0.0000 c          1 D1L       0.892600
      3 O1B          1.9450    -0.0010    -1.0460 o          1 D1L      -0.826800
      4 C2           2.0950     0.0000     1.3050 c3         1 D1L       0.019100
      5 C2A          1.7240    -1.2480     2.1070 c3         1 D1L      -0.102100
      6 O2           3.4990    -0.0000     1.0440 os         1 D1L      -0.298900
      7 C3           4.0800     0.7440     2.0230 ca         1 D1L       0.144100
      8 C4           4.5950     0.1260     3.1530 ca         1 D1L      -0.152000
      9 C5           5.1870     0.8820     4.1450 ca         1 D1L      -0.129500
     10 C6           4.1630     2.1220     1.8890 ca         1 D1L      -0.152000
     11 C7           4.7500     2.8790     2.8840 ca         1 D1L      -0.129500
     12 C8           5.2650     2.2590     4.0130 ca         1 D1L       0.018100
     13 O8           5.8460     3.0040     4.9900 os         1 D1L      -0.202200
     14 C9           4.8870     3.2500     5.9200 ca         1 D1L       0.133100
     15 C10          3.5780     2.8560     5.6880 ca         1 D1L      -0.182000
     16 C11          2.6040     3.1080     6.6350 ca         1 D1L      -0.083000
     17 C12          2.9340     3.7520     7.8150 ca         1 D1L      -0.006600
     18 Cl12         1.7070     4.0660     9.0030 cl         1 D1L      -0.118400
     19 C13          4.2390     4.1440     8.0500 ca         1 D1L      -0.094000
     20 C14          5.2170     3.8900     7.1080 ca         1 D1L      -0.003600
     21 Cl14         6.8560     4.3840     7.4020 cl         1 D1L      -0.099400
     22 H2           1.8330     0.8850     1.8730 h1         1 D1L       0.034700
     23 H2A1         0.8020    -1.6650     1.7210 hc         1 D1L       0.033033
     24 H2A2         2.5170    -1.9810     2.0210 hc         1 D1L       0.033033
     25 H2A3         1.5910    -0.9810     3.1490 hc         1 D1L       0.033033
     26 H4           4.5340    -0.9510     3.2560 ha         1 D1L       0.154500
     27 H5           5.5900     0.3990     5.0270 ha         1 D1L       0.135500
     28 H6           3.7610     2.6050     1.0070 ha         1 D1L       0.154500
     29 H7           4.8130     3.9550     2.7800 ha         1 D1L       0.135500
     30 H10          3.3080     2.4040     4.7420 ha         1 D1L       0.180000
     31 H11          1.5820     2.7970     6.4560 ha         1 D1L       0.153000
     32 H13          4.4880     4.6790     8.9590 ha         1 D1L       0.151000
@<TRIPOS>BOND
     1     1     2 1
     2     2     3 1
     3     2     4 1
     4     4     5 1
     5     4     6 1
     6     4    22 1
     7     5    23 1
     8     5    24 1
     9     5    25 1
    10     6     7 1
    11     7     8 ar
    12     7    10 ar
    13     8     9 ar
    14     8    26 1
    15     9    12 ar
    16     9    27 1
    17    10    11 ar
    18    10    28 1
    19    11    12 ar
    20    11    29 1
    21    12    13 1
    22    13    14 1
    23    14    15 ar
    24    14    20 ar
    25    15    16 ar
    26    15    30 1
    27    16    17 ar
    28    16    31 1
    29    17    18 1
    30    17    19 ar
    31    19    20 ar
    32    19    32 1
    33    20    21 1
@<TRIPOS>SUBSTRUCTURE
     1 D1L         1 TEMP              0 ****  ****    0 ROOT
