@<TRIPOS>MOLECULE
D1M
   35    36     1     0     0
SMALL
bcc


@<TRIPOS>ATOM
      1 N1         -0.0330    0.5710   -0.0860 n         1 D1M     -0.353000
      2 C2          1.2740    1.0910    0.1430 c         1 D1M      0.817500
      3 O2          1.8530    1.8190   -0.6950 o         1 D1M     -0.662500
      4 N3          1.8940    0.8320    1.3700 n         1 D1M     -0.584500
      5 C4          1.3110    0.0660    2.3990 c         1 D1M      0.723700
      6 O4          1.9580   -0.1060    3.4410 o         1 D1M     -0.580500
      7 C5         -0.0400   -0.4630    2.1110 cc        1 D1M     -0.094900
      8 C6         -0.6200   -0.2210    0.8960 cd        1 D1M      0.061600
      9 C7         -0.6910   -1.2080    3.1020 cg        1 D1M     -0.160300
     10 C8         -1.2380   -1.8440    3.9560 c1        1 D1M     -0.100500
     11 C1'        -0.6250    0.5050   -1.4160 c3        1 D1M      0.283500
     12 C2'        -0.1050    1.5090   -2.4780 c3        1 D1M      0.097100
     13 O2'        -0.3530    2.8390   -2.0790 oh        1 D1M     -0.604800
     14 C3'        -0.9240    1.2850   -3.7630 c3        1 D1M      0.103100
     15 O3'        -0.4330    2.0950   -4.8150 oh        1 D1M     -0.602800
     16 C4'        -0.7710   -0.1730   -4.2260 c3        1 D1M      0.121100
     17 O4'        -1.6490   -0.4460   -5.3030 oh        1 D1M     -0.593800
     18 C5'        -1.1580   -1.1230   -3.0820 c3        1 D1M      0.107100
     19 O5'        -0.3940   -0.8320   -1.9090 os        1 D1M     -0.451600
     20 C6'        -0.8240   -2.5740   -3.4430 c3        1 D1M      0.140400
     21 O6'        -1.2890   -3.4630   -2.4520 oh        1 D1M     -0.591800
     22 HN3         2.8040    1.2200    1.5060 hn        1 D1M      0.357500
     23 H6         -1.6140   -0.6370    0.6380 h4        1 D1M      0.178000
     24 H8         -1.7180   -2.4080    4.7160 ha        1 D1M      0.173500
     25 H1'        -1.7400    0.6640   -1.2800 h2        1 D1M      0.073700
     26 H2'         0.9870    1.3330   -2.6870 h1        1 D1M      0.099700
     27 HO2'        0.4040    3.1280   -1.5490 ho        1 D1M      0.439000
     28 H3'        -2.0080    1.5270   -3.5780 h1        1 D1M      0.062700
     29 HO3'       -0.4370    3.0060   -4.4880 ho        1 D1M      0.430000
     30 H4'         0.2930   -0.3550   -4.5440 h1        1 D1M      0.066700
     31 HO4'       -1.4580    0.2140   -5.9840 ho        1 D1M      0.429000
     32 H5'        -2.2550   -1.0230   -2.8510 h1        1 D1M      0.070700
     33 H6'        -1.3790   -2.8490   -4.3810 h1        1 D1M      0.068700
     34 H6'A        0.2810   -2.6880   -3.5930 h1        1 D1M      0.068700
     35 HO6'       -0.7970   -3.2700   -1.6440 ho        1 D1M      0.408000
@<TRIPOS>BOND
     1    1    2 1
     2    1    8 1
     3    1   11 1
     4    2    3 2
     5    2    4 1
     6    4    5 1
     7    4   22 1
     8    5    6 2
     9    5    7 1
    10    7    8 2
    11    7    9 1
    12    8   23 1
    13    9   10 3
    14   10   24 1
    15   11   12 1
    16   11   19 1
    17   11   25 1
    18   12   13 1
    19   12   14 1
    20   12   26 1
    21   13   27 1
    22   14   15 1
    23   14   16 1
    24   14   28 1
    25   15   29 1
    26   16   17 1
    27   16   18 1
    28   16   30 1
    29   17   31 1
    30   18   19 1
    31   18   20 1
    32   18   32 1
    33   20   21 1
    34   20   33 1
    35   20   34 1
    36   21   35 1
@<TRIPOS>SUBSTRUCTURE
     1 D1M         1 TEMP              0 ****  ****    0 ROOT
