@<TRIPOS>MOLECULE
D1N
   20    21     1     0     0
SMALL
bcc


@<TRIPOS>ATOM
      1 O2         -0.0020    0.0220   -0.1920 oh        1 D1N     -0.519100
      2 C2          1.3770   -0.0020   -0.0860 ca        1 D1N      0.016100
      3 C3          2.0440   -0.0770    1.1610 ca        1 D1N     -0.150000
      4 C4          3.4160   -0.0960    1.2000 ca        1 D1N     -0.119000
      5 C5          4.1810   -0.0400    0.0040 ca        1 D1N     -0.035000
      6 C10         3.5240    0.0350   -1.2510 ca        1 D1N     -0.031000
      7 C1          2.0960    0.0540   -1.2760 ca        1 D1N      0.119100
      8 O1          1.4970    0.1280   -2.5110 oh        1 D1N     -0.494100
      9 C9          4.2960    0.0900   -2.4440 ca        1 D1N     -0.097000
     10 C8          5.6670    0.0700   -2.3830 ca        1 D1N     -0.133000
     11 C7          6.3270   -0.0050   -1.1330 ca        1 D1N     -0.122000
     12 C6          5.6020   -0.0590    0.0330 ca        1 D1N     -0.122000
     13 HO2        -0.3650   -0.0300    0.7030 ho        1 D1N      0.428000
     14 H3          1.4480   -0.1190    2.0840 ha        1 D1N      0.134000
     15 H4          3.9460   -0.1540    2.1630 ha        1 D1N      0.137000
     16 HO1         0.5360    0.1300   -2.3760 ho        1 D1N      0.438000
     17 H9          3.7640    0.1480   -3.4060 ha        1 D1N      0.152000
     18 H8          6.2690    0.1120   -3.3030 ha        1 D1N      0.134000
     19 H7          7.4270   -0.0200   -1.1090 ha        1 D1N      0.132000
     20 H6          6.1070   -0.1180    1.0080 ha        1 D1N      0.132000
@<TRIPOS>BOND
     1    1    2 1   
     2    1   13 1   
     3    2    3 ar  
     4    2    7 ar  
     5    3    4 ar  
     6    3   14 1   
     7    4    5 ar  
     8    4   15 1   
     9    5    6 ar  
    10    5   12 ar  
    11    6    7 ar  
    12    6    9 ar  
    13    7    8 1   
    14    8   16 1   
    15    9   10 ar  
    16    9   17 1   
    17   10   11 ar  
    18   10   18 1   
    19   11   12 ar  
    20   11   19 1   
    21   12   20 1   
@<TRIPOS>SUBSTRUCTURE
     1 D1N         1 TEMP              0 ****  ****    0 ROOT
