@<TRIPOS>MOLECULE
molecule
   20    21     1     0     0
SMALL
bcc


@<TRIPOS>ATOM
      1 O2           0.0000     0.0000     0.0000 oh         1 D1N      -0.517100
      2 C2           1.3630     0.0000     0.0000 ca         1 D1N       0.074100
      3 C3           2.0440     0.0000     1.2140 ca         1 D1N      -0.148000
      4 C4           3.4400     0.0010     1.2310 ca         1 D1N      -0.113000
      5 C5           4.1710     0.0030     0.0320 ca         1 D1N      -0.031000
      6 C10          3.4780     0.0020    -1.2020 ca         1 D1N      -0.041000
      7 C1           2.0730     0.0010    -1.2010 ca         1 D1N       0.097100
      8 O1           1.3720    -0.0010    -2.3750 oh         1 D1N      -0.516100
      9 C9           4.2100     0.0040    -2.4010 ca         1 D1N      -0.107000
     10 C8           5.6040     0.0050    -2.3830 ca         1 D1N      -0.127000
     11 C7           6.2870     0.0050    -1.1700 ca         1 D1N      -0.121000
     12 C6           5.5750     0.0040     0.0310 ca         1 D1N      -0.121000
     13 HO2         -0.3140    -0.8620     0.2180 ho         1 D1N       0.424000
     14 H3           1.4910    -0.0010     2.1450 ha         1 D1N       0.143000
     15 H4           3.9640     0.0010     2.1790 ha         1 D1N       0.136000
     16 HO1          1.0800     0.8740    -2.5680 ho         1 D1N       0.425000
     17 H9           3.6850     0.0040    -3.3490 ha         1 D1N       0.144000
     18 H8           6.1570     0.0060    -3.3150 ha         1 D1N       0.134000
     19 H7           7.3700     0.0060    -1.1570 ha         1 D1N       0.133000
     20 H6           6.1120     0.0040     0.9720 ha         1 D1N       0.133000
@<TRIPOS>BOND
     1     1     2 1
     2     1    13 1
     3     2     3 ar
     4     2     7 ar
     5     3     4 ar
     6     3    14 1
     7     4     5 ar
     8     4    15 1
     9     5     6 ar
    10     5    12 ar
    11     6     7 ar
    12     6     9 ar
    13     7     8 1
    14     8    16 1
    15     9    10 ar
    16     9    17 1
    17    10    11 ar
    18    10    18 1
    19    11    12 ar
    20    11    19 1
    21    12    20 1
@<TRIPOS>SUBSTRUCTURE
     1 D1N         1 TEMP              0 ****  ****    0 ROOT
