@<TRIPOS>MOLECULE
molecule
   62    65     1     0     0
SMALL
bcc


@<TRIPOS>ATOM
      1 C1           0.0000     0.0000     0.0000 ca         1 D1Q      -0.140500
      2 C2           1.3810     0.0000     0.0000 ca         1 D1Q      -0.106000
      3 C3           2.0740     0.0000     1.1980 ca         1 D1Q       0.004400
      4 C4           1.3850    -0.0000     2.3980 ca         1 D1Q      -0.106000
      5 C5           0.0050     0.0010     2.4040 ca         1 D1Q      -0.140500
      6 C6          -0.6940    -0.0000     1.2030 ca         1 D1Q       0.070600
      7 Cl7          3.8100    -0.0000     1.1950 cl         1 D1Q      -0.126400
      8 N8          -2.0930     0.0000     1.2060 ns         1 D1Q      -0.486100
      9 C9          -2.7680    -0.6420     0.2320 c          1 D1Q       0.655100
     10 C10         -4.2720    -0.5470     0.1700 c3         1 D1Q      -0.156400
     11 C11         -4.7850    -1.3600    -1.0200 c3         1 D1Q      -0.013100
     12 C12         -6.2880    -1.2660    -1.0820 ca         1 D1Q      -0.158300
     13 C13         -6.8890    -0.1910    -1.7260 ca         1 D1Q       0.020600
     14 C14         -8.2710    -0.1030    -1.7840 ca         1 D1Q      -0.113000
     15 C15         -9.0540    -1.0950    -1.1950 ca         1 D1Q      -0.081600
     16 C16         -8.4400    -2.1710    -0.5500 ca         1 D1Q      -0.109000
     17 C17         -7.0640    -2.2520    -0.5020 ca         1 D1Q      -0.139000
     18 O18         -2.1680    -1.2930    -0.5950 o          1 D1Q      -0.595100
     19 N19         -6.0990     0.8010    -2.3140 ns         1 D1Q      -0.444100
     20 C20         -6.6090     1.5780    -3.2910 c          1 D1Q       0.582600
     21 C21         -5.8220     2.7020    -3.8240 cc         1 D1Q       0.406900
     22 O22         -7.7190     1.3500    -3.7310 o          1 D1Q      -0.561100
     23 C23        -10.5280    -1.0090    -1.2530 c          1 D1Q       0.882200
     24 O24        -11.2820    -1.9680    -0.6830 o          1 D1Q      -0.831300
     25 O25        -11.0590    -0.0720    -1.8140 o          1 D1Q      -0.831300
     26 N26         -4.6270     3.0430    -3.4340 nd         1 D1Q      -0.671000
     27 C27         -4.0830     4.0790    -4.0310 cd         1 D1Q       0.368600
     28 C28         -4.8640     4.6500    -4.9810 cc         1 D1Q      -0.195700
     29 S29         -6.3400     3.8000    -5.0970 ss         1 D1Q      -0.075300
     30 C30         -4.4630     5.8550    -5.8020 c3         1 D1Q       0.251100
     31 N31         -3.3150     6.5030    -5.1480 n3         1 D1Q      -0.724600
     32 C32         -2.2550     5.5260    -4.8590 c3         1 D1Q       0.154800
     33 C33         -2.6950     4.6180    -3.7070 c3         1 D1Q      -0.094700
     34 C34         -2.8010     7.6110    -5.9640 c3         1 D1Q       0.167500
     35 C35         -3.9310     8.6040    -6.2460 c3         1 D1Q      -0.091100
     36 C36         -1.6750     8.3220    -5.2090 c3         1 D1Q      -0.091100
     37 H1          -0.5420    -0.0000    -0.9380 ha         1 D1Q       0.153500
     38 H2           1.9220     0.0000    -0.9380 ha         1 D1Q       0.141500
     39 H4           1.9300     0.0000     3.3350 ha         1 D1Q       0.141500
     40 H5          -0.5330     0.0000     3.3450 ha         1 D1Q       0.153500
     41 HN8         -2.5920     0.5090     1.9090 hn         1 D1Q       0.327500
     42 H10         -4.5640     0.4890     0.0530 hc         1 D1Q       0.069200
     43 H10A        -4.6960    -0.9400     1.0860 hc         1 D1Q       0.069200
     44 H11         -4.3600    -0.9660    -1.9360 hc         1 D1Q       0.054700
     45 H11A        -4.4920    -2.3960    -0.9020 hc         1 D1Q       0.054700
     46 H14         -8.7410     0.7350    -2.2860 ha         1 D1Q       0.190000
     47 H16         -9.0450    -2.9450    -0.0930 ha         1 D1Q       0.157000
     48 H17         -6.5900    -3.0880    -0.0020 ha         1 D1Q       0.110000
     49 HN19        -5.1330     0.8830    -2.0650 hn         1 D1Q       0.328500
     50 H30         -5.2910     6.5510    -5.8550 h1         1 D1Q       0.047700
     51 H30A        -4.1820     5.5380    -6.7990 h1         1 D1Q       0.047700
     52 H32         -1.3730     6.0690    -4.5420 h1         1 D1Q       0.043200
     53 H32A        -2.1160     4.9100    -5.7390 h1         1 D1Q       0.043200
     54 H33         -2.7310     5.1890    -2.7870 hc         1 D1Q       0.063200
     55 H33A        -1.9990     3.7950    -3.6060 hc         1 D1Q       0.063200
     56 H34         -2.4190     7.2230    -6.9010 h1         1 D1Q       0.019700
     57 H35         -4.4970     8.7740    -5.3390 hc         1 D1Q       0.039867
     58 H35A        -4.5850     8.1990    -7.0090 hc         1 D1Q       0.039867
     59 H35B        -3.5110     9.5410    -6.5910 hc         1 D1Q       0.039867
     60 H36         -1.5550     9.3250    -5.6000 hc         1 D1Q       0.039867
     61 H36A        -0.7510     7.7710    -5.3370 hc         1 D1Q       0.039867
     62 H36B        -1.9220     8.3720    -4.1550 hc         1 D1Q       0.039867
@<TRIPOS>BOND
     1     1     2 ar
     2     1     6 ar
     3     2     3 ar
     4     3     4 ar
     5     3     7 1
     6     4     5 ar
     7     5     6 ar
     8     6     8 1
     9     8     9 1
    10     9    10 1
    11     9    18 2
    12    10    11 1
    13    11    12 1
    14    12    13 ar
    15    12    17 ar
    16    13    14 ar
    17    13    19 1
    18    14    15 ar
    19    15    16 ar
    20    15    23 1
    21    16    17 ar
    22    19    20 1
    23    20    21 1
    24    20    22 2
    25    21    26 2
    26    21    29 1
    27    23    24 1
    28    23    25 1
    29    26    27 1
    30    27    28 2
    31    27    33 1
    32    28    29 1
    33    28    30 1
    34    30    31 1
    35    31    32 1
    36    31    34 1
    37    32    33 1
    38    34    35 1
    39    34    36 1
    40     1    37 1
    41     2    38 1
    42     4    39 1
    43     5    40 1
    44     8    41 1
    45    10    42 1
    46    10    43 1
    47    11    44 1
    48    11    45 1
    49    14    46 1
    50    16    47 1
    51    17    48 1
    52    19    49 1
    53    30    50 1
    54    30    51 1
    55    32    52 1
    56    32    53 1
    57    33    54 1
    58    33    55 1
    59    34    56 1
    60    35    57 1
    61    35    58 1
    62    35    59 1
    63    36    60 1
    64    36    61 1
    65    36    62 1
@<TRIPOS>SUBSTRUCTURE
     1 D1Q         1 TEMP              0 ****  ****    0 ROOT
