@<TRIPOS>MOLECULE
D1Q
   62    65     1     0     0
SMALL
bcc


@<TRIPOS>ATOM
      1 C1           0.0000     0.0000     0.0000 ca         1 D1Q      -0.112500
      2 C2           1.3810     0.0000     0.0000 ca         1 D1Q      -0.082000
      3 C3           2.0740     0.0000     1.1980 ca         1 D1Q      -0.051600
      4 C4           1.3850    -0.0000     2.3980 ca         1 D1Q      -0.082000
      5 C5           0.0050     0.0010     2.4040 ca         1 D1Q      -0.112500
      6 C6          -0.6940    -0.0000     1.2030 ca         1 D1Q      -0.072400
      7 Cl7          3.8100    -0.0000     1.1950 cl         1 D1Q      -0.046400
      8 N8          -2.0930     0.0000     1.2060 ns         1 D1Q      -0.049100
      9 C9          -2.7680    -0.6420     0.2320 c          1 D1Q       0.561100
     10 C10         -4.2720    -0.5470     0.1700 c3         1 D1Q      -0.102400
     11 C11         -4.7850    -1.3600    -1.0200 c3         1 D1Q       0.050900
     12 C12         -6.2880    -1.2660    -1.0820 ca         1 D1Q      -0.165300
     13 C13         -6.8890    -0.1910    -1.7260 ca         1 D1Q      -0.135400
     14 C14         -8.2710    -0.1030    -1.7840 ca         1 D1Q      -0.092000
     15 C15         -9.0540    -1.0950    -1.1950 ca         1 D1Q      -0.080600
     16 C16         -8.4400    -2.1710    -0.5500 ca         1 D1Q      -0.076000
     17 C17         -7.0640    -2.2520    -0.5020 ca         1 D1Q      -0.120000
     18 O18         -2.1680    -1.2930    -0.5950 o          1 D1Q      -0.632100
     19 N19         -6.0990     0.8010    -2.3140 ns         1 D1Q       0.007900
     20 C20         -6.6090     1.5780    -3.2910 c          1 D1Q       0.475600
     21 C21         -5.8220     2.7020    -3.8240 cc         1 D1Q       0.413900
     22 O22         -7.7190     1.3500    -3.7310 o          1 D1Q      -0.597100
     23 C23        -10.5280    -1.0090    -1.2530 c          1 D1Q       0.971200
     24 O24        -11.2820    -1.9680    -0.6830 o          1 D1Q      -0.879800
     25 O25        -11.0590    -0.0720    -1.8140 o          1 D1Q      -0.879800
     26 N26         -4.6270     3.0430    -3.4340 nd         1 D1Q      -0.555000
     27 C27         -4.0830     4.0790    -4.0310 cd         1 D1Q       0.317600
     28 C28         -4.8640     4.6500    -4.9810 cc         1 D1Q      -0.145700
     29 S29         -6.3400     3.8000    -5.0970 ss         1 D1Q      -0.211300
     30 C30         -4.4630     5.8550    -5.8020 c3         1 D1Q       0.260100
     31 N31         -3.3150     6.5030    -5.1480 n3         1 D1Q      -0.539600
     32 C32         -2.2550     5.5260    -4.8590 c3         1 D1Q       0.134800
     33 C33         -2.6950     4.6180    -3.7070 c3         1 D1Q      -0.034700
     34 C34         -2.8010     7.6110    -5.9640 c3         1 D1Q       0.130500
     35 C35         -3.9310     8.6040    -6.2460 c3         1 D1Q      -0.005100
     36 C36         -1.6750     8.3220    -5.2090 c3         1 D1Q      -0.005100
     37 H1          -0.5420    -0.0000    -0.9380 ha         1 D1Q       0.127000
     38 H2           1.9220     0.0000    -0.9380 ha         1 D1Q       0.111500
     39 H4           1.9300     0.0000     3.3350 ha         1 D1Q       0.111500
     40 H5          -0.5330     0.0000     3.3450 ha         1 D1Q       0.127000
     41 HN8         -2.5920     0.5090     1.9090 hn         1 D1Q       0.171500
     42 H10         -4.5640     0.4890     0.0530 hc         1 D1Q       0.035700
     43 H10A        -4.6960    -0.9400     1.0860 hc         1 D1Q       0.035700
     44 H11         -4.3600    -0.9660    -1.9360 hc         1 D1Q       0.025200
     45 H11A        -4.4920    -2.3960    -0.9020 hc         1 D1Q       0.025200
     46 H14         -8.7410     0.7350    -2.2860 ha         1 D1Q       0.175000
     47 H16         -9.0450    -2.9450    -0.0930 ha         1 D1Q       0.131000
     48 H17         -6.5900    -3.0880    -0.0020 ha         1 D1Q       0.089000
     49 HN19        -5.1330     0.8830    -2.0650 hn         1 D1Q       0.172500
     50 H30         -5.2910     6.5510    -5.8550 h1         1 D1Q       0.022200
     51 H30A        -4.1820     5.5380    -6.7990 h1         1 D1Q       0.022200
     52 H32         -1.3730     6.0690    -4.5420 h1         1 D1Q       0.020200
     53 H32A        -2.1160     4.9100    -5.7390 h1         1 D1Q       0.020200
     54 H33         -2.7310     5.1890    -2.7870 hc         1 D1Q       0.027700
     55 H33A        -1.9990     3.7950    -3.6060 hc         1 D1Q       0.027700
     56 H34         -2.4190     7.2230    -6.9010 h1         1 D1Q       0.003700
     57 H35         -4.4970     8.7740    -5.3390 hc         1 D1Q       0.009200
     58 H35A        -4.5850     8.1990    -7.0090 hc         1 D1Q       0.009200
     59 H35B        -3.5110     9.5410    -6.5910 hc         1 D1Q       0.009200
     60 H36         -1.5550     9.3250    -5.6000 hc         1 D1Q       0.009200
     61 H36A        -0.7510     7.7710    -5.3370 hc         1 D1Q       0.009200
     62 H36B        -1.9220     8.3720    -4.1550 hc         1 D1Q       0.009200
@<TRIPOS>BOND
     1     1     2 ar  
     2     1     6 ar  
     3     1    37 1   
     4     2     3 ar  
     5     2    38 1   
     6     3     4 ar  
     7     3     7 1   
     8     4     5 ar  
     9     4    39 1   
    10     5     6 ar  
    11     5    40 1   
    12     6     8 1   
    13     8     9 1   
    14     8    41 1   
    15     9    10 1   
    16     9    18 2   
    17    10    11 1   
    18    10    42 1   
    19    10    43 1   
    20    11    12 1   
    21    11    44 1   
    22    11    45 1   
    23    12    13 ar  
    24    12    17 ar  
    25    13    14 ar  
    26    13    19 1   
    27    14    15 ar  
    28    14    46 1   
    29    15    16 ar  
    30    15    23 1   
    31    16    17 ar  
    32    16    47 1   
    33    17    48 1   
    34    19    20 1   
    35    19    49 1   
    36    20    21 1   
    37    20    22 2   
    38    21    26 2   
    39    21    29 1   
    40    23    24 1   
    41    23    25 1   
    42    26    27 1   
    43    27    28 2   
    44    27    33 1   
    45    28    29 1   
    46    28    30 1   
    47    30    31 1   
    48    30    50 1   
    49    30    51 1   
    50    31    32 1   
    51    31    34 1   
    52    32    33 1   
    53    32    52 1   
    54    32    53 1   
    55    33    54 1   
    56    33    55 1   
    57    34    35 1   
    58    34    36 1   
    59    34    56 1   
    60    35    57 1   
    61    35    58 1   
    62    35    59 1   
    63    36    60 1   
    64    36    61 1   
    65    36    62 1   
@<TRIPOS>SUBSTRUCTURE
     1 D1Q         1 TEMP              0 ****  ****    0 ROOT
