@<TRIPOS>MOLECULE
D1R
   81    84     1     0     0
SMALL
bcc


@<TRIPOS>ATOM
      1 C39          0.0000     0.0000     0.0000 c3         1 D1R       0.062000
      2 C40          1.5320     0.0000     0.0000 c3         1 D1R       0.140300
      3 N4           2.0680     0.0000     1.3660 n3         1 D1R      -0.539600
      4 C33          3.5300     0.0340     1.3440 c3         1 D1R       0.187100
      5 C49          1.5910    -1.1820     2.0950 c3         1 D1R       0.140300
      6 C48          0.0660    -1.1840     2.1670 c3         1 D1R       0.062000
      7 N3          -0.5470    -1.0720     0.8420 n          1 D1R      -0.196800
      8 C8          -1.6770    -1.8550     0.5460 c          1 D1R       0.635100
      9 O2          -2.0900    -2.7450     1.2970 o          1 D1R      -0.700100
     10 N1          -2.3130    -1.5580    -0.6540 ns         1 D1R      -0.214900
     11 C9          -3.4930    -2.2680    -1.0950 c3         1 D1R      -0.049300
     12 C10         -4.3850    -1.4050    -1.9950 c3         1 D1R       0.030900
     13 C11         -5.2380    -0.4350    -1.2130 ca         1 D1R      -0.100300
     14 C12         -6.4970    -0.8280    -0.7880 ca         1 D1R      -0.093500
     15 C13         -7.2850     0.0680    -0.0660 ca         1 D1R      -0.094000
     16 C14         -6.8040     1.3450     0.2210 ca         1 D1R      -0.097000
     17 C15         -5.5340     1.7260    -0.2120 ca         1 D1R      -0.094000
     18 C16         -4.7460     0.8300    -0.9350 ca         1 D1R      -0.093500
     19 C17         -3.0180    -3.5040    -1.8500 c          1 D1R       0.577100
     20 O3          -2.0040    -3.5170    -2.5440 o          1 D1R      -0.612100
     21 N2          -3.8340    -4.6030    -1.6130 ns         1 D1R      -0.212900
     22 C18         -3.5820    -5.9130    -2.1680 c3         1 D1R       0.038700
     23 C19         -3.6260    -5.8720    -3.7050 c3         1 D1R      -0.053400
     24 C20         -4.9600    -5.3340    -4.2410 c3         1 D1R       0.032900
     25 C21         -4.9580    -5.2460    -5.7460 ca         1 D1R      -0.090300
     26 C22         -4.5280    -4.0780    -6.3590 ca         1 D1R      -0.095500
     27 C23         -4.5260    -3.9970    -7.7520 ca         1 D1R      -0.098000
     28 C24         -4.9540    -5.0830    -8.5140 ca         1 D1R      -0.104000
     29 C25         -5.3830    -6.2510    -7.8850 ca         1 D1R      -0.098000
     30 C26         -5.3840    -6.3330    -6.4920 ca         1 D1R      -0.095500
     31 C27         -2.2200    -6.4470    -1.6890 c3         1 D1R      -0.019400
     32 C28         -2.0570    -6.5050    -0.1740 c3         1 D1R      -0.016600
     33 S1          -0.5010    -7.1710     0.3250 sy         1 D1R       0.819300
     34 O4           0.5520    -6.2580    -0.0830 o          1 D1R      -0.574300
     35 O5          -0.4610    -8.5650    -0.0860 o          1 D1R      -0.574300
     36 CAB         -0.5630    -7.1300     2.0930 ca         1 D1R      -0.134500
     37 CAA         -1.0660    -8.2230     2.7760 ca         1 D1R       0.003500
     38 CAC         -1.1150    -8.1890     4.1690 ca         1 D1R      -0.130500
     39 CAE         -0.6620    -7.0630     4.8570 ca         1 D1R      -0.050000
     40 CAF         -0.1580    -5.9710     4.1500 ca         1 D1R      -0.130500
     41 CAD         -0.1090    -6.0040     2.7560 ca         1 D1R       0.003500
     42 H391        -0.3510    -0.1370    -1.0160 h1         1 D1R       0.022950
     43 H392        -0.3510     0.9540     0.3740 h1         1 D1R       0.022950
     44 H401         1.8850     0.8840    -0.5170 h1         1 D1R       0.017950
     45 H402         1.8850    -0.8840    -0.5170 h1         1 D1R       0.017950
     46 H331         3.9040    -0.8490     0.8410 h1         1 D1R       0.002367
     47 H332         3.9060     0.0570     2.3600 h1         1 D1R       0.002367
     48 H333         3.8630     0.9190     0.8160 h1         1 D1R       0.002367
     49 H491         1.9950    -1.1690     3.1000 h1         1 D1R       0.017950
     50 H492         1.9250    -2.0760     1.5820 h1         1 D1R       0.017950
     51 H481        -0.2620    -2.1080     2.6280 h1         1 D1R       0.022950
     52 H482        -0.2570    -0.3470     2.7740 h1         1 D1R       0.022950
     53 HN1         -1.9420    -0.8290    -1.2310 hn         1 D1R       0.186500
     54 H9          -4.0620    -2.5800    -0.2280 h1         1 D1R       0.062700
     55 H101        -3.7560    -0.8450    -2.6770 hc         1 D1R       0.028200
     56 H102        -5.0330    -2.0550    -2.5700 hc         1 D1R       0.028200
     57 H12         -6.8660    -1.8210    -1.0140 ha         1 D1R       0.104500
     58 H13         -8.2710    -0.2280     0.2710 ha         1 D1R       0.104000
     59 H14         -7.4160     2.0410     0.7820 ha         1 D1R       0.105000
     60 H15         -5.1600     2.7180     0.0110 ha         1 D1R       0.104000
     61 H16         -3.7590     1.1200    -1.2740 ha         1 D1R       0.104500
     62 HN2         -4.6380    -4.4810    -1.0290 hn         1 D1R       0.177500
     63 H18         -4.3560    -6.5870    -1.8210 h1         1 D1R       0.022700
     64 H191        -3.4750    -6.8740    -4.0870 hc         1 D1R       0.039200
     65 H192        -2.8240    -5.2360    -4.0620 hc         1 D1R       0.039200
     66 H201        -5.1340    -4.3470    -3.8290 hc         1 D1R       0.011200
     67 H202        -5.7590    -5.9950    -3.9260 hc         1 D1R       0.011200
     68 H22         -4.1970    -3.2370    -5.7620 ha         1 D1R       0.107000
     69 H23         -4.1930    -3.0890    -8.2410 ha         1 D1R       0.102000
     70 H24         -4.9530    -5.0190    -9.5960 ha         1 D1R       0.102000
     71 H25         -5.7140    -7.0960    -8.4770 ha         1 D1R       0.102000
     72 H26         -5.7160    -7.2380    -5.9980 ha         1 D1R       0.107000
     73 H271        -2.0870    -7.4470    -2.0860 hc         1 D1R       0.048200
     74 H272        -1.4420    -5.8110    -2.0930 hc         1 D1R       0.048200
     75 H281        -2.1500    -5.5020     0.2240 h1         1 D1R       0.072700
     76 H282        -2.8470    -7.1200     0.2380 h1         1 D1R       0.072700
     77 HAA         -1.4160    -9.0940     2.2360 ha         1 D1R       0.127000
     78 HAC         -1.5060    -9.0380     4.7180 ha         1 D1R       0.107500
     79 HAE         -0.7000    -7.0370     5.9390 ha         1 D1R       0.101000
     80 HAF          0.1940    -5.0960     4.6840 ha         1 D1R       0.107500
     81 HAD          0.2810    -5.1590     2.2010 ha         1 D1R       0.127000
@<TRIPOS>BOND
     1     1     2 1   
     2     1     7 1   
     3     1    42 1   
     4     1    43 1   
     5     2     3 1   
     6     2    44 1   
     7     2    45 1   
     8     3     4 1   
     9     3     5 1   
    10     4    46 1   
    11     4    47 1   
    12     4    48 1   
    13     5     6 1   
    14     5    49 1   
    15     5    50 1   
    16     6     7 1   
    17     6    51 1   
    18     6    52 1   
    19     7     8 1   
    20     8     9 2   
    21     8    10 1   
    22    10    11 1   
    23    10    53 1   
    24    11    12 1   
    25    11    19 1   
    26    11    54 1   
    27    12    13 1   
    28    12    55 1   
    29    12    56 1   
    30    13    14 ar  
    31    13    18 ar  
    32    14    15 ar  
    33    14    57 1   
    34    15    16 ar  
    35    15    58 1   
    36    16    17 ar  
    37    16    59 1   
    38    17    18 ar  
    39    17    60 1   
    40    18    61 1   
    41    19    20 2   
    42    19    21 1   
    43    21    22 1   
    44    21    62 1   
    45    22    23 1   
    46    22    31 1   
    47    22    63 1   
    48    23    24 1   
    49    23    64 1   
    50    23    65 1   
    51    24    25 1   
    52    24    66 1   
    53    24    67 1   
    54    25    26 ar  
    55    25    30 ar  
    56    26    27 ar  
    57    26    68 1   
    58    27    28 ar  
    59    27    69 1   
    60    28    29 ar  
    61    28    70 1   
    62    29    30 ar  
    63    29    71 1   
    64    30    72 1   
    65    31    32 1   
    66    31    73 1   
    67    31    74 1   
    68    32    33 1   
    69    32    75 1   
    70    32    76 1   
    71    33    34 2   
    72    33    35 2   
    73    33    36 1   
    74    36    37 ar  
    75    36    41 ar  
    76    37    38 ar  
    77    37    77 1   
    78    38    39 ar  
    79    38    78 1   
    80    39    40 ar  
    81    39    79 1   
    82    40    41 ar  
    83    40    80 1   
    84    41    81 1   
@<TRIPOS>SUBSTRUCTURE
     1 D1R         1 TEMP              0 ****  ****    0 ROOT
