@<TRIPOS>MOLECULE
D1T
   33    32     1     0     0
SMALL
bcc


@<TRIPOS>ATOM
      1 C10         0.0180   -0.0000   -0.0030 c3        1 D1T     -0.093100
      2 C9          1.5250    0.0000    0.0230 c3        1 D1T     -0.080400
      3 C8          2.0560    0.0000    1.4410 c3        1 D1T     -0.079400
      4 C7          3.5690    0.0000    1.4620 c3        1 D1T     -0.079400
      5 C6          4.0990    0.0000    2.8800 c3        1 D1T     -0.079400
      6 C5          5.6120    0.0000    2.9010 c3        1 D1T     -0.079400
      7 C4          6.1410   -0.0000    4.3200 c3        1 D1T     -0.079400
      8 C3          7.6540    0.0000    4.3400 c3        1 D1T     -0.077400
      9 C2          8.1800   -0.0000    5.7610 c3        1 D1T     -0.073400
     10 C1          9.6870    0.0000    5.7790 c3        1 D1T      0.011700
     11 S1         10.1920   -0.0010    7.4780 sh        1 D1T     -0.381900
     12 H101       -0.3850   -0.9050    0.5120 hc        1 D1T      0.032700
     13 H102       -0.3850    0.9050    0.5120 hc        1 D1T      0.032700
     14 H103       -0.3520   -0.0000   -1.0570 hc        1 D1T      0.032700
     15 H91         1.9110    0.9020   -0.5210 hc        1 D1T      0.038700
     16 H92         1.9110   -0.9020   -0.5210 hc        1 D1T      0.038700
     17 H81         1.6720   -0.9020    1.9850 hc        1 D1T      0.039700
     18 H82         1.6720    0.9030    1.9850 hc        1 D1T      0.039700
     19 H71         3.9530    0.9030    0.9170 hc        1 D1T      0.039700
     20 H72         3.9530   -0.9020    0.9170 hc        1 D1T      0.039700
     21 H61         3.7150    0.9030    3.4250 hc        1 D1T      0.040700
     22 H62         3.7150   -0.9030    3.4250 hc        1 D1T      0.040700
     23 H51         5.9960    0.9030    2.3570 hc        1 D1T      0.039700
     24 H52         5.9960   -0.9030    2.3570 hc        1 D1T      0.039700
     25 H41         5.7570    0.9030    4.8640 hc        1 D1T      0.041700
     26 H42         5.7570   -0.9030    4.8640 hc        1 D1T      0.041700
     27 H31         8.0390    0.9030    3.7970 hc        1 D1T      0.040700
     28 H32         8.0390   -0.9030    3.7960 hc        1 D1T      0.040700
     29 H21         7.7950    0.9040    6.3050 hc        1 D1T      0.057700
     30 H22         7.7950   -0.9050    6.3040 hc        1 D1T      0.057700
     31 H11        10.0850    0.9030    5.2560 h1        1 D1T      0.058700
     32 H12        10.0850   -0.9020    5.2550 h1        1 D1T      0.058700
     33 HS1        11.5010    0.0000    7.3060 hs        1 D1T      0.199800
@<TRIPOS>BOND
     1    1    2 1   
     2    1   12 1   
     3    1   13 1   
     4    1   14 1   
     5    2    3 1   
     6    2   15 1   
     7    2   16 1   
     8    3    4 1   
     9    3   17 1   
    10    3   18 1   
    11    4    5 1   
    12    4   19 1   
    13    4   20 1   
    14    5    6 1   
    15    5   21 1   
    16    5   22 1   
    17    6    7 1   
    18    6   23 1   
    19    6   24 1   
    20    7    8 1   
    21    7   25 1   
    22    7   26 1   
    23    8    9 1   
    24    8   27 1   
    25    8   28 1   
    26    9   10 1   
    27    9   29 1   
    28    9   30 1   
    29   10   11 1   
    30   10   31 1   
    31   10   32 1   
    32   11   33 1   
@<TRIPOS>SUBSTRUCTURE
     1 D1T         1 TEMP              0 ****  ****    0 ROOT
