@<TRIPOS>MOLECULE
molecule
   33    32     1     0     0
SMALL
bcc


@<TRIPOS>ATOM
      1 C10          0.0000     0.0000     0.0000 c3         1 D1T      -0.092100
      2 C9           1.5300     0.0000     0.0000 c3         1 D1T      -0.084400
      3 C8           2.0410     0.0000     1.4420 c3         1 D1T      -0.081400
      4 C7           3.5710    -0.0000     1.4410 c3         1 D1T      -0.082400
      5 C6           4.0810     0.0000     2.8840 c3         1 D1T      -0.081400
      6 C5           5.6110    -0.0000     2.8830 c3         1 D1T      -0.082400
      7 C4           6.1220     0.0000     4.3250 c3         1 D1T      -0.080400
      8 C3           7.6520    -0.0000     4.3250 c3         1 D1T      -0.080400
      9 C2           8.1630    -0.0000     5.7660 c3         1 D1T      -0.066400
     10 C1           9.6930    -0.0000     5.7650 c3         1 D1T       0.046700
     11 S1          10.2980     0.0000     7.4760 sh         1 D1T      -0.436900
     12 H101        -0.3610     0.8850     0.5110 hc         1 D1T       0.032367
     13 H102        -0.3610    -0.8850     0.5110 hc         1 D1T       0.032367
     14 H103        -0.3610     0.0000    -1.0210 hc         1 D1T       0.032367
     15 H91          1.8910     0.8840    -0.5110 hc         1 D1T       0.039700
     16 H92          1.8910    -0.8840    -0.5110 hc         1 D1T       0.039700
     17 H81          1.6800    -0.8840     1.9530 hc         1 D1T       0.041700
     18 H82          1.6800     0.8840     1.9530 hc         1 D1T       0.041700
     19 H71          3.9320     0.8850     0.9300 hc         1 D1T       0.040700
     20 H72          3.9320    -0.8850     0.9300 hc         1 D1T       0.040700
     21 H61          3.7200    -0.8850     3.3940 hc         1 D1T       0.041700
     22 H62          3.7200     0.8850     3.3940 hc         1 D1T       0.041700
     23 H51          5.9720     0.8850     2.3720 hc         1 D1T       0.041700
     24 H52          5.9720    -0.8850     2.3720 hc         1 D1T       0.041700
     25 H41          5.7610    -0.8850     4.8360 hc         1 D1T       0.043700
     26 H42          5.7610     0.8850     4.8360 hc         1 D1T       0.043700
     27 H31          8.0130    -0.8840     3.8140 hc         1 D1T       0.041700
     28 H32          8.0130     0.8840     3.8140 hc         1 D1T       0.041700
     29 H21          7.8020     0.8840     6.2770 hc         1 D1T       0.056700
     30 H22          7.8020    -0.8840     6.2770 hc         1 D1T       0.056700
     31 H11         10.0540     0.8850     5.2550 h1         1 D1T       0.054700
     32 H12         10.0540    -0.8850     5.2550 h1         1 D1T       0.054700
     33 HS1         11.6260    -0.0000     7.4750 hs         1 D1T       0.217800
@<TRIPOS>BOND
     1     1     2 1
     2     1    12 1
     3     1    13 1
     4     1    14 1
     5     2     3 1
     6     2    15 1
     7     2    16 1
     8     3     4 1
     9     3    17 1
    10     3    18 1
    11     4     5 1
    12     4    19 1
    13     4    20 1
    14     5     6 1
    15     5    21 1
    16     5    22 1
    17     6     7 1
    18     6    23 1
    19     6    24 1
    20     7     8 1
    21     7    25 1
    22     7    26 1
    23     8     9 1
    24     8    27 1
    25     8    28 1
    26     9    10 1
    27     9    29 1
    28     9    30 1
    29    10    11 1
    30    10    31 1
    31    10    32 1
    32    11    33 1
@<TRIPOS>SUBSTRUCTURE
     1 D1T         1 TEMP              0 ****  ****    0 ROOT
