@<TRIPOS>MOLECULE
D1U
   54    56     1     0     0
SMALL
bcc


@<TRIPOS>ATOM
      1 CAA          0.0000     0.0000     0.0000 c3         1 D1U       0.129000
      2 CAB         11.7850    -3.8380     4.4060 c3         1 D1U      -0.000600
      3 CAC         10.5620    -4.0030     2.2370 c3         1 D1U      -0.000600
      4 NAD          4.9650     0.4580     7.4330 nz         1 D1U       0.211600
      5 OAE          3.4880     0.1650     5.8010 o          1 D1U      -0.522100
      6 OAF         12.4350    -1.7410     0.1670 o          1 D1U      -0.512100
      7 FAG         11.6800     0.9120    -0.6950 f          1 D1U      -0.193300
      8 FAH          9.5150     1.3820    -1.2530 f          1 D1U      -0.193300
      9 FAI         10.3770    -0.6920    -1.6680 f          1 D1U      -0.193300
     10 CAJ          8.0540    -0.0090     4.6020 ca         1 D1U      -0.169000
     11 CAK          7.0630     0.1050     5.5340 ca         1 D1U      -0.022000
     12 CAL          6.4160    -0.1200     2.8360 ca         1 D1U      -0.169000
     13 CAM          3.7430     0.0010     1.9400 c3         1 D1U       0.155800
     14 CAN          2.2220     0.0000     1.7670 c3         1 D1U       0.050700
     15 CAO         12.4040    -2.3670     2.4850 c3         1 D1U      -0.106400
     16 CAP         10.2410    -1.9990     3.7230 c3         1 D1U       0.067900
     17 NAQ          8.8380     0.3220     1.1950 nc         1 D1U      -0.623800
     18 NAR          4.0720     0.0010     3.3670 nu         1 D1U      -0.340600
     19 SAS          1.8140     0.0000     0.0000 ss         1 D1U      -0.367200
     20 CAT          4.6540     0.2360     6.1410 c          1 D1U       0.361700
     21 CAU         11.8630    -1.6880     1.2360 c          1 D1U       0.648700
     22 CAV          7.7400    -0.1180     3.2490 ca         1 D1U      -0.030200
     23 CAW          5.4000     0.0010     3.7730 ca         1 D1U       0.171600
     24 CAX          5.7220     0.1120     5.1360 ca         1 D1U      -0.336600
     25 CAY          9.8380    -1.1020     2.5780 cc         1 D1U      -0.215600
     26 CAZ          9.9290    -0.0590     0.5800 cd         1 D1U       0.352600
     27 CBA         10.5960    -0.9610     1.4190 cd         1 D1U      -0.331900
     28 NBB          8.7650    -0.3190     2.4410 na         1 D1U       0.660300
     29 CBC         11.2400    -3.0440     3.2160 c3         1 D1U      -0.070000
     30 HAA         -0.3610    -0.8830     0.5130 h1         1 D1U       0.037700
     31 HAAA        -0.3610    -0.0030    -1.0210 h1         1 D1U       0.037700
     32 HAAB        -0.3610     0.8860     0.5080 h1         1 D1U       0.037700
     33 HAB         10.9630    -4.3020     4.9370 hc         1 D1U       0.014033
     34 HABA        12.3150    -3.1690     5.0740 hc         1 D1U       0.014033
     35 HABB        12.4630    -4.6040     4.0490 hc         1 D1U       0.014033
     36 HAC         10.0340    -3.4340     1.4810 hc         1 D1U       0.014033
     37 HACA        11.3120    -4.6240     1.7620 hc         1 D1U       0.014033
     38 HACB         9.8600    -4.6310     2.7730 hc         1 D1U       0.014033
     39 HNAD         4.1240     0.5740     7.9640 hn         1 D1U       0.243133
     40 HNAA         5.4800    -0.3220     7.7910 hn         1 D1U       0.243133
     41 HAJ          9.0910    -0.0110     4.9160 ha         1 D1U       0.141000
     42 HAK          7.3160     0.1900     6.5840 ha         1 D1U       0.081000
     43 HAL          6.1760    -0.2050     1.7830 ha         1 D1U       0.163000
     44 HAM          4.1590    -0.8840     1.4730 h1         1 D1U       0.049700
     45 HAMA         4.1590     0.8850     1.4730 h1         1 D1U       0.049700
     46 HAN          1.8050     0.8840     2.2340 h1         1 D1U       0.040200
     47 HANA         1.8060    -0.8850     2.2340 h1         1 D1U       0.040200
     48 HAO         12.8170    -1.6050     3.1350 hc         1 D1U       0.052200
     49 HAOA        13.1050    -3.1340     2.1790 hc         1 D1U       0.052200
     50 HAP         10.7360    -1.3910     4.4700 hc         1 D1U       0.033200
     51 HAPA         9.3570    -2.5180     4.0730 hc         1 D1U       0.033200
     52 HNAR         3.3410    -0.0400     4.0490 hn         1 D1U       0.345800
     53 HAD3         5.4610     1.3240     7.5130 hn         1 D1U       0.243133
     54 CBD         10.3840     0.3910    -0.7840 c3         1 D1U       0.577600
@<TRIPOS>BOND
     1     1    19 1   
     2     1    30 1   
     3     1    31 1   
     4     1    32 1   
     5     2    29 1   
     6     2    33 1   
     7     2    34 1   
     8     2    35 1   
     9     3    29 1   
    10     3    36 1   
    11     3    37 1   
    12     3    38 1   
    13     4    20 1   
    14     4    39 1   
    15     4    40 1   
    16     4    53 1   
    17     5    20 2   
    18     6    21 2   
    19     7    54 1   
    20     8    54 1   
    21     9    54 1   
    22    10    11 ar  
    23    10    22 ar  
    24    10    41 1   
    25    11    24 ar  
    26    11    42 1   
    27    12    22 ar  
    28    12    23 ar  
    29    12    43 1   
    30    13    14 1   
    31    13    18 1   
    32    13    44 1   
    33    13    45 1   
    34    14    19 1   
    35    14    46 1   
    36    14    47 1   
    37    15    21 1   
    38    15    29 1   
    39    15    48 1   
    40    15    49 1   
    41    16    25 1   
    42    16    29 1   
    43    16    50 1   
    44    16    51 1   
    45    17    26 2   
    46    17    28 1   
    47    18    23 1   
    48    18    52 1   
    49    20    24 1   
    50    21    27 1   
    51    22    28 1   
    52    23    24 ar  
    53    25    27 2   
    54    25    28 1   
    55    26    27 1   
    56    26    54 1   
@<TRIPOS>SUBSTRUCTURE
     1 D1U         1 TEMP              0 ****  ****    0 ROOT
