@<TRIPOS>MOLECULE
molecule
   18    19     1     0     0
SMALL
bcc


@<TRIPOS>ATOM
      1 O4           0.0000     0.0000     0.0000 o          1 D1V      -0.617500
      2 C3           1.2180     0.0000     0.0000 c          1 D1V       0.706100
      3 C4           1.9810     0.0000     1.2550 ca         1 D1V      -0.198600
      4 C1           3.3920    -0.0000     1.1780 ca         1 D1V       0.186400
      5 N1           3.9850    -0.0010    -0.0330 nc         1 D1V      -0.626100
      6 C2           3.2840    -0.0010    -1.1400 cd         1 D1V       0.526800
      7 S1           4.1440    -0.0020    -2.6780 sh         1 D1V      -0.276000
      8 N2           1.9190    -0.0060    -1.1580 ns         1 D1V      -0.452400
      9 C8           4.1390     0.0010     2.3600 ca         1 D1V      -0.114000
     10 C7           3.4980     0.0020     3.5660 ca         1 D1V      -0.094000
     11 C6           2.1110     0.0020     3.6370 ca         1 D1V      -0.147000
     12 C5           1.3530     0.0020     2.4990 ca         1 D1V      -0.055000
     13 HS1          4.9790     1.0290    -2.7190 hs         1 D1V       0.232800
     14 HN2          1.4330    -0.0060    -2.0330 hn         1 D1V       0.349500
     15 H8           5.2220     0.0010     2.3190 ha         1 D1V       0.151000
     16 H7           4.0790     0.0020     4.4800 ha         1 D1V       0.136000
     17 H6           1.6250     0.0030     4.6050 ha         1 D1V       0.137000
     18 H5           0.2710     0.0020     2.5650 ha         1 D1V       0.156000
@<TRIPOS>BOND
     1     1     2 2
     2     2     3 1
     3     2     8 1
     4     3     4 ar
     5     3    12 ar
     6     4     5 1
     7     4     9 ar
     8     5     6 2
     9     6     7 1
    10     6     8 1
    11     9    10 ar
    12    10    11 ar
    13    11    12 ar
    14     7    13 1
    15     8    14 1
    16     9    15 1
    17    10    16 1
    18    11    17 1
    19    12    18 1
@<TRIPOS>SUBSTRUCTURE
     1 D1V         1 TEMP              0 ****  ****    0 ROOT
