@<TRIPOS>MOLECULE
D1W
   54    57     1     0     0
SMALL
bcc


@<TRIPOS>ATOM
      1 C1           0.0000     0.0000     0.0000 ca         1 D1W       0.557600
      2 N2           1.3190     0.0000     0.0000 nb         1 D1W      -0.590000
      3 C3           2.0160     0.0000     1.1310 cp         1 D1W       0.426800
      4 C4           1.3710     0.0010     2.3640 ca         1 D1W      -0.208300
      5 C5          -0.0130     0.0010     2.4040 ca         1 D1W      -0.142000
      6 C6          -0.7120     0.0070     1.2020 ca         1 D1W      -0.094700
      7 C7           3.4980    -0.0010     1.0800 cp         1 D1W      -0.142500
      8 C8           4.2390    -0.0010     2.2600 ca         1 D1W      -0.103000
      9 C9           5.6170    -0.0030     2.2090 ca         1 D1W      -0.107000
     10 C10          6.2690    -0.0040     0.9890 ca         1 D1W      -0.100000
     11 C11          4.1560    -0.0080    -0.1540 ca         1 D1W       0.097100
     12 C12          5.5440    -0.0010    -0.1940 ca         1 D1W       0.062100
     13 O13          6.2070     0.0070    -1.3830 os         1 D1W      -0.299900
     14 C14          5.4530    -0.3670    -2.5430 c3         1 D1W       0.166400
     15 C15          4.1090     0.3740    -2.5020 c3         1 D1W       0.156400
     16 O16          3.4260    -0.0170    -1.3020 os         1 D1W      -0.262900
     17 O17         -0.6730     0.0010    -1.1790 os         1 D1W      -0.446100
     18 C18          0.1120     0.0000    -2.3740 c3         1 D1W       0.258700
     19 N19         -2.1110     0.0080     1.1960 nu         1 D1W      -0.209000
     20 C20         -2.8150     0.1600     2.3920 ca         1 D1W       0.010600
     21 C21         -2.3910     1.0900     3.3350 ca         1 D1W      -0.146000
     22 C22         -3.0890     1.2370     4.5180 ca         1 D1W      -0.062500
     23 C23         -4.2080     0.4630     4.7650 ca         1 D1W      -0.115300
     24 C24         -4.6320    -0.4630     3.8280 ca         1 D1W      -0.062500
     25 C25         -3.9430    -0.6110     2.6400 ca         1 D1W      -0.146000
     26 C26         -4.9660     0.6270     6.0570 c3         1 D1W       0.214100
     27 N27         -6.0120     1.6460     5.8840 n3         1 D1W      -0.542600
     28 C28         -6.9210     1.6670     7.0380 c3         1 D1W       0.180100
     29 C29         -5.4210     2.9710     5.6540 c3         1 D1W       0.180100
     30 H1           1.9460    -0.0020     3.2830 ha         1 D1W       0.121000
     31 H2          -0.5400     0.0040     3.3510 ha         1 D1W       0.142000
     32 H3           3.7320    -0.0000     3.2180 ha         1 D1W       0.113000
     33 H4           6.1910    -0.0030     3.1270 ha         1 D1W       0.105000
     34 H5           7.3520    -0.0060     0.9570 ha         1 D1W       0.114000
     35 H6           5.2800    -1.4360    -2.5350 h1         1 D1W       0.023200
     36 H7           5.9960    -0.0860    -3.4370 h1         1 D1W       0.023200
     37 H8           3.5160     0.0790    -3.3590 h1         1 D1W       0.025700
     38 H9           4.2930     1.4410    -2.4720 h1         1 D1W       0.025700
     39 H10          0.7380    -0.8840    -2.3940 h1         1 D1W      -0.000300
     40 H11         -0.5430    -0.0020    -3.2360 h1         1 D1W      -0.000300
     41 H12          0.7360     0.8850    -2.3970 h1         1 D1W      -0.000300
     42 H13         -2.6080    -0.0910     0.3330 hn         1 D1W       0.297800
     43 H14         -1.5140     1.6960     3.1430 ha         1 D1W       0.117500
     44 H15         -2.7590     1.9610     5.2530 ha         1 D1W       0.107000
     45 H16         -5.5100    -1.0660     4.0230 ha         1 D1W       0.107000
     46 H17         -4.2750    -1.3370     1.9080 ha         1 D1W       0.117500
     47 H18         -4.2840     0.9380     6.8390 h1         1 D1W       0.011200
     48 H19         -5.4230    -0.3170     6.3290 h1         1 D1W       0.011200
     49 H21         -6.3710     1.9550     7.9260 h1         1 D1W       0.001700
     50 H22         -7.3460     0.6810     7.1800 h1         1 D1W       0.001700
     51 H23         -7.7160     2.3810     6.8580 h1         1 D1W       0.001700
     52 H24         -5.1080     3.0530     4.6200 h1         1 D1W       0.001700
     53 H25         -6.1570     3.7370     5.8700 h1         1 D1W       0.001700
     54 H26         -4.5630     3.1020     6.3030 h1         1 D1W       0.001700
@<TRIPOS>BOND
     1     1     2 ar  
     2     1     6 ar  
     3     1    17 1   
     4     2     3 ar  
     5     3     4 ar  
     6     3     7 1   
     7     4     5 ar  
     8     4    30 1   
     9     5     6 ar  
    10     5    31 1   
    11     6    19 1   
    12     7     8 ar  
    13     7    11 ar  
    14     8     9 ar  
    15     8    32 1   
    16     9    10 ar  
    17     9    33 1   
    18    10    12 ar  
    19    10    34 1   
    20    11    12 ar  
    21    11    16 1   
    22    12    13 1   
    23    13    14 1   
    24    14    15 1   
    25    14    35 1   
    26    14    36 1   
    27    15    16 1   
    28    15    37 1   
    29    15    38 1   
    30    17    18 1   
    31    18    39 1   
    32    18    40 1   
    33    18    41 1   
    34    19    20 1   
    35    19    42 1   
    36    20    21 ar  
    37    20    25 ar  
    38    21    22 ar  
    39    21    43 1   
    40    22    23 ar  
    41    22    44 1   
    42    23    24 ar  
    43    23    26 1   
    44    24    25 ar  
    45    24    45 1   
    46    25    46 1   
    47    26    27 1   
    48    26    47 1   
    49    26    48 1   
    50    27    28 1   
    51    27    29 1   
    52    28    49 1   
    53    28    50 1   
    54    28    51 1   
    55    29    52 1   
    56    29    53 1   
    57    29    54 1   
@<TRIPOS>SUBSTRUCTURE
     1 D1W         1 TEMP              0 ****  ****    0 ROOT
