@<TRIPOS>MOLECULE
molecule
   54    57     1     0     0
SMALL
bcc


@<TRIPOS>ATOM
      1 C1           0.0000     0.0000     0.0000 ca         1 D1W       0.600600
      2 N2           1.3190     0.0000     0.0000 nb         1 D1W      -0.706000
      3 C3           2.0160     0.0000     1.1310 cp         1 D1W       0.472800
      4 C4           1.3710     0.0010     2.3640 ca         1 D1W      -0.236300
      5 C5          -0.0130     0.0010     2.4040 ca         1 D1W      -0.150000
      6 C6          -0.7120     0.0070     1.2020 ca         1 D1W       0.060300
      7 C7           3.4980    -0.0010     1.0800 cp         1 D1W      -0.132500
      8 C8           4.2390    -0.0010     2.2600 ca         1 D1W      -0.120000
      9 C9           5.6170    -0.0030     2.2090 ca         1 D1W      -0.134000
     10 C10          6.2690    -0.0040     0.9890 ca         1 D1W      -0.118000
     11 C11          4.1560    -0.0080    -0.1540 ca         1 D1W       0.092100
     12 C12          5.5440    -0.0010    -0.1940 ca         1 D1W       0.056100
     13 O13          6.2070     0.0070    -1.3830 os         1 D1W      -0.322900
     14 C14          5.4530    -0.3670    -2.5430 c3         1 D1W       0.096400
     15 C15          4.1090     0.3740    -2.5020 c3         1 D1W       0.091400
     16 O16          3.4260    -0.0170    -1.3020 os         1 D1W      -0.282900
     17 O17         -0.6730     0.0010    -1.1790 os         1 D1W      -0.458100
     18 C18          0.1120     0.0000    -2.3740 c3         1 D1W       0.143700
     19 N19         -2.1110     0.0080     1.1960 nu         1 D1W      -0.673000
     20 C20         -2.8150     0.1600     2.3920 ca         1 D1W       0.163600
     21 C21         -2.3910     1.0900     3.3350 ca         1 D1W      -0.171000
     22 C22         -3.0890     1.2370     4.5180 ca         1 D1W      -0.092000
     23 C23         -4.2080     0.4630     4.7650 ca         1 D1W      -0.105300
     24 C24         -4.6320    -0.4630     3.8280 ca         1 D1W      -0.092000
     25 C25         -3.9430    -0.6110     2.6400 ca         1 D1W      -0.171000
     26 C26         -4.9660     0.6270     6.0570 c3         1 D1W       0.210100
     27 N27         -6.0120     1.6460     5.8840 n3         1 D1W      -0.726600
     28 C28         -6.9210     1.6670     7.0380 c3         1 D1W       0.150100
     29 C29         -5.4210     2.9710     5.6540 c3         1 D1W       0.150100
     30 H1           1.9460    -0.0020     3.2830 ha         1 D1W       0.141000
     31 H2          -0.5400     0.0040     3.3510 ha         1 D1W       0.161000
     32 H3           3.7320    -0.0000     3.2180 ha         1 D1W       0.137000
     33 H4           6.1910    -0.0030     3.1270 ha         1 D1W       0.136000
     34 H5           7.3520    -0.0060     0.9570 ha         1 D1W       0.144000
     35 H6           5.2800    -1.4360    -2.5350 h1         1 D1W       0.067200
     36 H7           5.9960    -0.0860    -3.4370 h1         1 D1W       0.067200
     37 H8           3.5160     0.0790    -3.3590 h1         1 D1W       0.068200
     38 H9           4.2930     1.4410    -2.4720 h1         1 D1W       0.068200
     39 H10          0.7380    -0.8840    -2.3940 h1         1 D1W       0.044700
     40 H11         -0.5430    -0.0020    -3.2360 h1         1 D1W       0.044700
     41 H12          0.7360     0.8850    -2.3970 h1         1 D1W       0.044700
     42 H13         -2.6080    -0.0910     0.3330 hn         1 D1W       0.462800
     43 H14         -1.5140     1.6960     3.1430 ha         1 D1W       0.139500
     44 H15         -2.7590     1.9610     5.2530 ha         1 D1W       0.133500
     45 H16         -5.5100    -1.0660     4.0230 ha         1 D1W       0.133500
     46 H17         -4.2750    -1.3370     1.9080 ha         1 D1W       0.139500
     47 H18         -4.2840     0.9380     6.8390 h1         1 D1W       0.038200
     48 H19         -5.4230    -0.3170     6.3290 h1         1 D1W       0.038200
     49 H21         -6.3710     1.9550     7.9260 h1         1 D1W       0.032367
     50 H22         -7.3460     0.6810     7.1800 h1         1 D1W       0.032367
     51 H23         -7.7160     2.3810     6.8580 h1         1 D1W       0.032367
     52 H24         -5.1080     3.0530     4.6200 h1         1 D1W       0.032367
     53 H25         -6.1570     3.7370     5.8700 h1         1 D1W       0.032367
     54 H26         -4.5630     3.1020     6.3030 h1         1 D1W       0.032367
@<TRIPOS>BOND
     1    10     9 ar
     2    10    12 ar
     3    13    12 1
     4    13    14 1
     5     9     8 ar
     6    12    11 ar
     7    14    15 1
     8     8     7 ar
     9    11     7 ar
    10    11    16 1
    11     7     3 1
    12    16    15 1
    13     4     3 ar
    14     4     5 ar
    15     3     2 ar
    16     5     6 ar
    17     2     1 ar
    18     6     1 ar
    19     6    19 1
    20    22    21 ar
    21    22    23 ar
    22     1    17 1
    23    26    23 1
    24    26    27 1
    25    21    20 ar
    26    23    24 ar
    27    20    19 1
    28    20    25 ar
    29    27    29 1
    30    27    28 1
    31    24    25 ar
    32    17    18 1
    33     4    30 1
    34     5    31 1
    35     8    32 1
    36     9    33 1
    37    10    34 1
    38    14    35 1
    39    14    36 1
    40    15    37 1
    41    15    38 1
    42    18    39 1
    43    18    40 1
    44    18    41 1
    45    19    42 1
    46    21    43 1
    47    22    44 1
    48    24    45 1
    49    25    46 1
    50    26    47 1
    51    26    48 1
    52    28    49 1
    53    28    50 1
    54    28    51 1
    55    29    52 1
    56    29    53 1
    57    29    54 1
@<TRIPOS>SUBSTRUCTURE
     1 D1W         1 TEMP              0 ****  ****    0 ROOT
