@<TRIPOS>MOLECULE
D1X
   15    15     1     0     0
SMALL
bcc


@<TRIPOS>ATOM
      1 OAA          0.0000     0.0000     0.0000 o          1 D1X      -0.867300
      2 OAB          1.6480    -0.0140     4.9520 o          1 D1X      -0.687500
      3 OAC          1.9550     0.0030    -1.0520 o          1 D1X      -0.867300
      4 CAE          3.4310    -0.0030     1.3010 ce         1 D1X      -0.269200
      5 CAF          1.3530    -0.0070     2.6020 c3         1 D1X      -0.072200
      6 NAG          3.5260    -0.0040     3.7670 ns         1 D1X      -0.165500
      7 CAH          1.3470     0.0000     0.0000 c          1 D1X       0.963800
      8 CAI          4.1550     0.0000     2.5830 c          1 D1X       0.628700
      9 CAJ          2.0850    -0.0040     1.2770 cf         1 D1X      -0.059400
     10 CAK          2.1840    -0.0110     3.8650 c          1 D1X       0.623500
     11 HAE          3.9860    -0.0010     0.3700 ha         1 D1X       0.158000
     12 HAF          0.7180     0.8700     2.6290 hc         1 D1X       0.066700
     13 HAFA         0.7180    -0.8850     2.6240 hc         1 D1X       0.066700
     14 HNAG         4.0730    -0.0010     4.6060 hn         1 D1X       0.175500
     15 OAD          5.3690     0.0040     2.5670 o          1 D1X      -0.693500
@<TRIPOS>BOND
     1     1     7 1   
     2     2    10 2   
     3     3     7 1   
     4     4     8 1   
     5     4     9 2   
     6     4    11 1   
     7     5     9 1   
     8     5    10 1   
     9     5    12 1   
    10     5    13 1   
    11     6     8 1   
    12     6    10 1   
    13     6    14 1   
    14     7     9 1   
    15     8    15 2   
@<TRIPOS>SUBSTRUCTURE
     1 D1X         1 TEMP              0 ****  ****    0 ROOT
