@<TRIPOS>MOLECULE
molecule
   22    22     1     0     0
SMALL
bcc


@<TRIPOS>ATOM
      1 C10          0.0000     0.0000     0.0000 ca         1 D1Y      -0.068000
      2 C15          2.0930     0.0000     1.2160 ca         1 D1Y       0.075400
      3 C02          1.3500    -0.0010    -5.0020 c          1 D1Y       0.848800
      4 C04          2.0880     0.0000    -3.7180 ce         1 D1Y       0.144900
      5 C06          1.4090     0.0000    -2.5470 cf         1 D1Y      -0.359200
      6 C07          2.1390     0.0000    -1.2750 c          1 D1Y       0.566900
      7 C09          1.3980     0.0000     0.0000 ca         1 D1Y      -0.145600
      8 C11         -0.6880     0.0000     1.1930 ca         1 D1Y      -0.172000
      9 C12          0.0060    -0.0060     2.3970 ca         1 D1Y       0.111100
     10 C14          1.3970    -0.0110     2.4040 ca         1 D1Y      -0.176000
     11 O01          2.0280    -0.0010    -6.1670 o          1 D1Y      -0.817800
     12 O03          0.1360    -0.0000    -5.0050 o          1 D1Y      -0.817800
     13 O05          3.4420    -0.0000    -3.7150 oh         1 D1Y      -0.504100
     14 O08          3.3550    -0.0000    -1.2720 o          1 D1Y      -0.528100
     15 O13         -0.6770    -0.0050     3.5700 oh         1 D1Y      -0.527100
     16 Cl16         3.8290    -0.0070     1.2250 cl         1 D1Y      -0.075400
     17 H1          -0.5420     0.0020    -0.9380 ha         1 D1Y       0.164000
     18 H3           0.3250    -0.0000    -2.5500 ha         1 D1Y       0.154000
     19 H5          -1.7710     0.0020     1.1920 ha         1 D1Y       0.138000
     20 H6           1.9330    -0.0130     3.3460 ha         1 D1Y       0.142000
     21 H8           3.7570     0.7490    -4.1930 ho         1 D1Y       0.431000
     22 H9          -0.8000    -0.8920     3.8630 ho         1 D1Y       0.414000
@<TRIPOS>BOND
     1    16     2 1
     2    14     6 2
     3     2    10 ar
     4     2     7 ar
     5    10     9 ar
     6     6     7 1
     7     6     5 1
     8     7     1 ar
     9    13     4 1
    10     9    15 1
    11     9     8 ar
    12     1     8 ar
    13     4     5 2
    14     4     3 1
    15    12     3 1
    16     3    11 1
    17     1    17 1
    18     5    18 1
    19     8    19 1
    20    10    20 1
    21    13    21 1
    22    15    22 1
@<TRIPOS>SUBSTRUCTURE
     1 D1Y         1 TEMP              0 ****  ****    0 ROOT
