@<TRIPOS>MOLECULE
molecule
   75    79     1     0     0
SMALL
bcc


@<TRIPOS>ATOM
      1 O20          0.0000     0.0000     0.0000 o          1 D1Z      -0.610100
      2 C19          1.2130     0.0000     0.0000 c          1 D1Z       0.664100
      3 C21          1.9670     0.0000     1.3060 c3         1 D1Z      -0.145700
      4 C39          2.8080     1.2760     1.4100 c3         1 D1Z      -0.105400
      5 C38          3.5080     1.3060     2.7720 c3         1 D1Z       0.137400
      6 O37          2.5290     1.2340     3.8100 os         1 D1Z      -0.420600
      7 C36          1.7440     0.0410     3.7910 c3         1 D1Z       0.137400
      8 C35          0.9730    -0.0410     2.4710 c3         1 D1Z      -0.105400
      9 N18          1.8870    -0.0080    -1.1670 ns         1 D1Z      -0.581900
     10 C17          1.1590     0.0990    -2.4340 c3         1 D1Z       0.124000
     11 C15          2.1370    -0.0570    -3.5990 c3         1 D1Z       0.079100
     12 C14          1.3860     0.0870    -4.9300 c3         1 D1Z       0.110400
     13 O13          2.3270    -0.0790    -5.9960 os         1 D1Z      -0.320900
     14 C12          3.1880    -1.1290    -5.8950 ca         1 D1Z       0.056100
     15 C10          3.8650    -1.5650    -7.0240 ca         1 D1Z      -0.116000
     16 C9           4.7450    -2.6280    -6.9450 ca         1 D1Z      -0.133000
     17 C8           4.9590    -3.2650    -5.7390 ca         1 D1Z      -0.115000
     18 O16          2.7330    -1.3580    -3.5590 os         1 D1Z      -0.296900
     19 C11          3.3930    -1.7630    -4.6770 ca         1 D1Z       0.090100
     20 C7           4.2850    -2.8370    -4.5970 cp         1 D1Z      -0.129500
     21 C3           4.5130    -3.5190    -3.3000 cp         1 D1Z       0.469800
     22 N2           3.4770    -3.8140    -2.5230 nb         1 D1Z      -0.710000
     23 C4           5.8100    -3.8480    -2.9140 ca         1 D1Z      -0.234300
     24 C5           6.0140    -4.4850    -1.7020 ca         1 D1Z      -0.152000
     25 C6           4.9080    -4.7750    -0.9100 ca         1 D1Z       0.060300
     26 C1           3.6350    -4.4210    -1.3620 ca         1 D1Z       0.600600
     27 O22          2.5480    -4.7040    -0.5990 os         1 D1Z      -0.459100
     28 C23          1.2660    -4.4220    -1.1630 c3         1 D1Z       0.140700
     29 N24          5.0690    -5.4180     0.3230 nu         1 D1Z      -0.670000
     30 C25          6.3190    -5.9190     0.6910 ca         1 D1Z       0.162600
     31 C30          6.7490    -5.8210     2.0090 ca         1 D1Z      -0.169000
     32 C29          7.9850    -6.3190     2.3690 ca         1 D1Z      -0.103000
     33 C28          8.7960    -6.9150     1.4200 ca         1 D1Z      -0.152000
     34 C27          8.3710    -7.0140     0.1080 ca         1 D1Z      -0.055300
     35 C26          7.1330    -6.5240    -0.2590 ca         1 D1Z      -0.156000
     36 C31          9.2590    -7.6650    -0.9230 c3         1 D1Z       0.207100
     37 N32          8.9710    -9.1050    -0.9770 n3         1 D1Z      -0.724600
     38 C34          9.6400    -9.7310    -2.1260 c3         1 D1Z       0.150100
     39 C33          9.3520    -9.7650     0.2780 c3         1 D1Z       0.150100
     40 H1           2.6160    -0.8660     1.3550 hc         1 D1Z       0.068700
     41 H2           2.1640     2.1420     1.3160 hc         1 D1Z       0.061200
     42 H3           3.5520     1.2830     0.6230 hc         1 D1Z       0.061200
     43 H4           4.0680     2.2280     2.8690 h1         1 D1Z       0.047700
     44 H5           4.1790     0.4590     2.8510 h1         1 D1Z       0.047700
     45 H6           2.3950    -0.8200     3.8810 h1         1 D1Z       0.047700
     46 H7           1.0430     0.0580     4.6170 h1         1 D1Z       0.047700
     47 H8           0.4140    -0.9680     2.4360 hc         1 D1Z       0.061200
     48 H9           0.2940     0.8010     2.3960 hc         1 D1Z       0.061200
     49 H10          2.8850    -0.0720    -1.1670 hn         1 D1Z       0.324500
     50 H11          0.4090    -0.6810    -2.4860 h1         1 D1Z       0.065200
     51 H12          0.6780     1.0680    -2.4940 h1         1 D1Z       0.065200
     52 H13          2.9110     0.6990    -3.5350 h1         1 D1Z       0.063700
     53 H14          0.6350    -0.6910    -4.9970 h1         1 D1Z       0.073700
     54 H15          0.9580     1.0810    -4.9880 h1         1 D1Z       0.073700
     55 H16          3.7020    -1.0710    -7.9740 ha         1 D1Z       0.146000
     56 H17          5.2700    -2.9610    -7.8320 ha         1 D1Z       0.138000
     57 H18          5.6500    -4.0970    -5.6810 ha         1 D1Z       0.140000
     58 H19          6.6500    -3.6080    -3.5550 ha         1 D1Z       0.142000
     59 H20          7.0120    -4.7490    -1.3770 ha         1 D1Z       0.163000
     60 H21          1.1300    -3.3490    -1.2310 h1         1 D1Z       0.048033
     61 H22          0.4930    -4.8450    -0.5340 h1         1 D1Z       0.048033
     62 H23          1.2040    -4.8570    -2.1540 h1         1 D1Z       0.048033
     63 H24          4.2830    -5.5360     0.9320 hn         1 D1Z       0.463800
     64 H25          6.1140    -5.3550     2.7520 ha         1 D1Z       0.133000
     65 H26          8.3200    -6.2420     3.3960 ha         1 D1Z       0.131000
     66 H27          9.7670    -7.3020     1.7050 ha         1 D1Z       0.130000
     67 H28          6.8020    -6.6030    -1.2870 ha         1 D1Z       0.150000
     68 H29         10.2970    -7.5140    -0.6540 h1         1 D1Z       0.039200
     69 H30          9.0690    -7.2220    -1.8940 h1         1 D1Z       0.039200
     70 H32          9.3070    -9.2560    -3.0410 h1         1 D1Z       0.032867
     71 H33          9.3930   -10.7860    -2.1560 h1         1 D1Z       0.032867
     72 H34         10.7120    -9.6140    -2.0270 h1         1 D1Z       0.032867
     73 H35          8.5250    -9.7170     0.9770 h1         1 D1Z       0.032867
     74 H36         10.2130    -9.2640     0.7030 h1         1 D1Z       0.032867
     75 H37          9.5970   -10.8020     0.0810 h1         1 D1Z       0.032867
@<TRIPOS>BOND
     1    15    16 ar
     2    15    14 ar
     3    16    17 ar
     4    13    14 1
     5    13    12 1
     6    14    19 ar
     7    12    11 1
     8    17    20 ar
     9    19    20 ar
    10    19    18 1
    11    20    21 1
    12    11    18 1
    13    11    10 1
    14    23    21 ar
    15    23    24 ar
    16    21    22 ar
    17    10     9 1
    18    24    25 ar
    19    22    26 ar
    20    38    37 1
    21     9     2 1
    22     1     2 2
    23    25    26 ar
    24    25    29 1
    25    32    31 ar
    26    32    33 ar
    27    26    27 1
    28     2     3 1
    29    31    30 ar
    30    37    39 1
    31    37    36 1
    32    33    34 ar
    33    30    29 1
    34    30    35 ar
    35    34    35 ar
    36    34    36 1
    37    27    28 1
    38     3     8 1
    39     3     4 1
    40     8     7 1
    41     4     5 1
    42     7     6 1
    43     5     6 1
    44     3    40 1
    45     4    41 1
    46     4    42 1
    47     5    43 1
    48     5    44 1
    49     7    45 1
    50     7    46 1
    51     8    47 1
    52     8    48 1
    53     9    49 1
    54    10    50 1
    55    10    51 1
    56    11    52 1
    57    12    53 1
    58    12    54 1
    59    15    55 1
    60    16    56 1
    61    17    57 1
    62    23    58 1
    63    24    59 1
    64    28    60 1
    65    28    61 1
    66    28    62 1
    67    29    63 1
    68    31    64 1
    69    32    65 1
    70    33    66 1
    71    35    67 1
    72    36    68 1
    73    36    69 1
    74    38    70 1
    75    38    71 1
    76    38    72 1
    77    39    73 1
    78    39    74 1
    79    39    75 1
@<TRIPOS>SUBSTRUCTURE
     1 D1Z         1 TEMP              0 ****  ****    0 ROOT
