@<TRIPOS>MOLECULE
D20
   36    35     1     0     0
SMALL
bcc


@<TRIPOS>ATOM
      1 N            0.0000     0.0000     0.0000 nz         1 D20       0.078400
      2 C1           1.4630     0.0000     0.0000 c3         1 D20      -0.194500
      3 C            1.9350     0.0000     1.4440 c          1 D20       0.948600
      4 O            3.2890    -0.0900     1.5340 o          1 D20      -0.814800
      5 C2           2.0270     1.1910    -0.7890 c3         1 D20      -0.001400
      6 C3           1.6880     2.5680    -0.1970 c3         1 D20      -0.044400
      7 C4           2.3200     3.7130    -0.9860 c3         1 D20       0.193800
      8 N5           1.9860     4.9900    -0.4020 nu         1 D20      -0.570200
      9 C6           2.3920     6.2230    -0.8790 c2         1 D20       0.587100
     10 N61          1.9080     7.2610    -0.1040 nu         1 D20      -0.499200
     11 N62          3.1420     6.4090    -1.9300 n2         1 D20      -0.852100
     12 C7           2.1690     8.6590    -0.3500 c3         1 D20       0.180800
     13 C8          -0.5690    10.0650     1.6730 c3         1 D20       0.250700
     14 O9           1.2110     0.0690     2.4280 o          1 D20      -0.814800
     15 O10          0.0980     9.2940     0.6840 os         1 D20      -0.415600
     16 C10          1.5050     9.4980     0.7270 c3         1 D20       0.190400
     17 HN1         -0.3340     0.7410     0.5850 hn         1 D20       0.210467
     18 HN2         -0.3340     0.1360    -0.9340 hn         1 D20       0.210467
     19 H1           1.8040    -0.9140    -0.4710 hx         1 D20       0.083700
     20 H2C1         1.6380     1.1470    -1.7990 hc         1 D20       0.038200
     21 H2C2         3.1050     1.0930    -0.8320 hc         1 D20       0.038200
     22 H3C1         0.6120     2.6940    -0.1980 hc         1 D20       0.022700
     23 H3C2         2.0450     2.6080     0.8250 hc         1 D20       0.022700
     24 H4C1         3.3960     3.5920    -0.9870 h1         1 D20       0.012200
     25 H4C2         1.9580     3.6830    -2.0070 h1         1 D20       0.012200
     26 H5           1.4100     4.9820     0.4160 hn         1 D20       0.285800
     27 H61          1.3370     7.0270     0.6840 hn         1 D20       0.287800
     28 H62          3.4670     5.6230    -2.4580 hn         1 D20       0.328400
     29 H7C1         3.2370     8.8340    -0.3370 h1         1 D20       0.027700
     30 H7C2         1.7700     8.9350    -1.3190 h1         1 D20       0.027700
     31 H101         1.8830     9.2040     1.6980 h1         1 D20      -0.001300
     32 H102         1.7240    10.5450     0.5550 h1         1 D20      -0.001300
     33 H8C1        -0.1740     9.8180     2.6510 h1         1 D20      -0.011967
     34 H8C2        -1.6300     9.8470     1.6460 h1         1 D20      -0.011967
     35 H8C3        -0.4120    11.1190     1.4760 h1         1 D20      -0.011967
     36 HN3         -0.3340    -0.8760     0.3510 hn         1 D20       0.210467
@<TRIPOS>BOND
     1     1     2 1   
     2     1    17 1   
     3     1    18 1   
     4     1    36 1   
     5     2     3 1   
     6     2     5 1   
     7     2    19 1   
     8     3     4 1   
     9     3    14 1   
    10     5     6 1   
    11     5    20 1   
    12     5    21 1   
    13     6     7 1   
    14     6    22 1   
    15     6    23 1   
    16     7     8 1   
    17     7    24 1   
    18     7    25 1   
    19     8     9 1   
    20     8    26 1   
    21     9    10 1   
    22     9    11 2   
    23    10    12 1   
    24    10    27 1   
    25    11    28 1   
    26    12    16 1   
    27    12    29 1   
    28    12    30 1   
    29    13    15 1   
    30    13    33 1   
    31    13    34 1   
    32    13    35 1   
    33    15    16 1   
    34    16    31 1   
    35    16    32 1   
@<TRIPOS>SUBSTRUCTURE
     1 D20         1 TEMP              0 ****  ****    0 ROOT
