@<TRIPOS>MOLECULE
molecule
  115   114     1     0     0
SMALL
bcc


@<TRIPOS>ATOM
      1 C01          0.0000     0.0000     0.0000 c3         1 D21      -0.092100
      2 C02          1.5300     0.0000     0.0000 c3         1 D21      -0.084400
      3 C03          2.0400     0.0000     1.4430 c3         1 D21      -0.081400
      4 C04          3.5700     0.0010     1.4420 c3         1 D21      -0.082400
      5 C05          4.0800     0.0010     2.8850 c3         1 D21      -0.082400
      6 C06          5.6100     0.0020     2.8850 c3         1 D21      -0.082400
      7 C07          6.1210     0.0010     4.3280 c3         1 D21      -0.082400
      8 C08          7.6500     0.0020     4.3280 c3         1 D21      -0.082400
      9 C09          8.1600     0.0020     5.7700 c3         1 D21      -0.082400
     10 C10          9.6900     0.0030     5.7700 c3         1 D21      -0.082400
     11 C11         10.2000     0.0030     7.2130 c3         1 D21      -0.082400
     12 C12         11.7300     0.0030     7.2130 c3         1 D21      -0.081400
     13 C13         12.2400     0.0030     8.6560 c3         1 D21      -0.084400
     14 C14         13.7700     0.0040     8.6550 c3         1 D21      -0.071400
     15 C15         14.2790     0.0040    10.0990 c3         1 D21      -0.127400
     16 C16         15.7870     0.0040    10.0980 c          1 D21       0.641100
     17 O17         16.3910     0.0060     9.0520 o          1 D21      -0.627000
     18 O18         16.4580     0.0050    11.2610 os         1 D21      -0.319900
     19 C19         17.9080     0.0050    11.1850 c3         1 D21       0.164400
     20 C20         18.4930     0.0050    12.5990 c3         1 D21       0.133100
     21 C21         17.9230    -1.1760    13.3860 c3         1 D21       0.206400
     22 O22         16.4960    -1.1240    13.3600 os         1 D21      -0.564200
     23 P23         15.5640    -2.2160    14.0890 p5         1 D21       1.188900
     24 O24         14.0200    -1.7730    13.9650 o          1 D21      -0.870500
     25 O25         15.7680    -3.6500    13.3880 o          1 D21      -0.870500
     26 O26         15.9370    -2.3070    15.5190 o          1 D21      -0.870500
     27 O30         18.1420     1.2450    13.2670 os         1 D21      -0.389900
     28 C31         19.0040     1.7050    14.1880 c          1 D21       0.639100
     29 O32         20.0170     1.0930    14.4260 o          1 D21      -0.583000
     30 C33         18.7080     2.9880    14.9230 c3         1 D21      -0.129400
     31 C34         19.8400     3.2850    15.9080 c3         1 D21      -0.071400
     32 C35         19.5390     4.5860    16.6540 c3         1 D21      -0.085400
     33 C36         20.6720     4.8830    17.6390 c3         1 D21      -0.078400
     34 C37         20.3710     6.1840    18.3850 c3         1 D21      -0.091400
     35 C38         21.5040     6.4810    19.3690 c3         1 D21      -0.095400
     36 C39         21.2040     7.7820    20.1160 c3         1 D21       0.061800
     37 C40         22.3190     8.0750    21.0850 c2         1 D21      -0.245200
     38 C41         22.9100     9.2440    21.0710 c2         1 D21      -0.275200
     39 C42         22.3650    10.3520    20.2070 c3         1 D21       0.061800
     40 C43         22.1280    11.5980    21.0640 c3         1 D21      -0.095400
     41 C44         21.5750    12.7230    20.1860 c3         1 D21      -0.091400
     42 C45         21.3380    13.9680    21.0430 c3         1 D21      -0.080400
     43 C46         20.7860    15.0940    20.1650 c3         1 D21      -0.083400
     44 C47         20.5490    16.3390    21.0220 c3         1 D21      -0.081400
     45 C48         19.9970    17.4630    20.1450 c3         1 D21      -0.084400
     46 C49         19.7590    18.7090    21.0020 c3         1 D21      -0.092100
     47 H1          -0.3610     0.8850     0.5100 hc         1 D21       0.030367
     48 H2          -0.3610    -0.0000    -1.0210 hc         1 D21       0.030367
     49 H3          -0.3610    -0.8840     0.5110 hc         1 D21       0.030367
     50 H4           1.8910     0.8850    -0.5110 hc         1 D21       0.039200
     51 H5           1.8910    -0.8850    -0.5110 hc         1 D21       0.039200
     52 H6           1.6790     0.8840     1.9530 hc         1 D21       0.041200
     53 H7           1.6800    -0.8850     1.9530 hc         1 D21       0.041200
     54 H8           3.9300     0.8860     0.9320 hc         1 D21       0.039700
     55 H9           3.7180     0.8850     3.3960 hc         1 D21       0.041200
     56 H10          5.9720    -0.8820     2.3740 hc         1 D21       0.039200
     57 H11          5.9710     0.8870     2.3750 hc         1 D21       0.039200
     58 H12          5.7600    -0.8840     4.8380 hc         1 D21       0.041200
     59 H13          5.7590     0.8850     4.8400 hc         1 D21       0.041200
     60 H14          8.0110     0.8870     3.8170 hc         1 D21       0.038200
     61 H15          8.0120    -0.8820     3.8170 hc         1 D21       0.038200
     62 H16          7.8000    -0.8830     6.2810 hc         1 D21       0.041700
     63 H17          7.7990     0.8860     6.2810 hc         1 D21       0.041700
     64 H18         10.0510     0.8880     5.2600 hc         1 D21       0.037200
     65 H19         10.0520    -0.8810     5.2590 hc         1 D21       0.037200
     66 H20          9.8390    -0.8810     7.7240 hc         1 D21       0.043200
     67 H21          9.8390     0.8880     7.7240 hc         1 D21       0.043200
     68 H22         12.0910     0.8880     6.7020 hc         1 D21       0.035200
     69 H23         11.8780     0.8870     9.1670 hc         1 D21       0.048200
     70 H24         14.1300     0.8890     8.1450 hc         1 D21       0.043200
     71 H25         14.1320    -0.8800     8.1440 hc         1 D21       0.043200
     72 H26         13.9180     0.8880    10.6090 hc         1 D21       0.096700
     73 H27         13.9180    -0.8810    10.6090 hc         1 D21       0.096700
     74 H28         18.2420    -0.8790    10.6560 h1         1 D21       0.034700
     75 H29         18.2410     0.8900    10.6570 h1         1 D21       0.034700
     76 H30         19.5710    -0.0840    12.5430 h1         1 D21       0.049700
     77 H31         18.2680    -1.1260    14.4120 h1         1 D21       0.029200
     78 H32         18.2590    -2.1040    12.9380 h1         1 D21       0.029200
     79 H35         17.7750     2.8860    15.4650 hc         1 D21       0.068700
     80 H36         18.6250     3.8010    14.2110 hc         1 D21       0.068700
     81 H37         19.9230     2.4720    16.6190 hc         1 D21       0.056200
     82 H38         20.7730     3.3870    15.3650 hc         1 D21       0.056200
     83 H39         19.4560     5.3990    15.9430 hc         1 D21       0.037700
     84 H40         18.6070     4.4830    17.1960 hc         1 D21       0.037700
     85 H41         20.7550     4.0700    18.3490 hc         1 D21       0.043200
     86 H42         21.6040     4.9850    17.0960 hc         1 D21       0.043200
     87 H43         19.4400     6.0820    18.9280 hc         1 D21       0.035700
     88 H44         20.2880     6.9970    17.6750 hc         1 D21       0.035700
     89 H45         21.5880     5.6680    20.0800 hc         1 D21       0.052200
     90 H46         22.4360     6.5830    18.8260 hc         1 D21       0.052200
     91 H47         21.1210     8.5960    19.4050 hc         1 D21       0.035700
     92 H48         20.2710     7.6800    20.6580 hc         1 D21       0.035700
     93 H49         21.3000     8.3740    21.3000 ha         1 D21       0.060000
     94 H51         23.1770     9.3170    20.0240 ha         1 D21       0.060000
     95 H52         23.0770    10.5830    19.4240 hc         1 D21       0.034700
     96 H53         21.4150    11.3670    21.8460 hc         1 D21       0.049700
     97 H54         23.0640    11.9130    21.5090 hc         1 D21       0.049700
     98 H55         22.2880    12.9540    19.4030 hc         1 D21       0.038200
     99 H56         20.6400    12.4070    19.7410 hc         1 D21       0.038200
    100 H57         20.6260    13.7380    21.8260 hc         1 D21       0.040700
    101 H58         22.2740    14.2840    21.4880 hc         1 D21       0.040700
    102 H59         19.8500    14.7780    19.7200 hc         1 D21       0.040700
    103 H60         21.4980    15.3240    19.3830 hc         1 D21       0.040700
    104 H61         21.4850    16.6540    21.4680 hc         1 D21       0.039700
    105 H62         19.8360    16.1080    21.8050 hc         1 D21       0.039700
    106 H63         20.7090    17.6940    19.3620 hc         1 D21       0.039700
    107 H64         19.0610    17.1470    19.7000 hc         1 D21       0.039700
    108 H65         19.0460    18.4790    21.7840 hc         1 D21       0.030700
    109 H66         20.6950    19.0250    21.4470 hc         1 D21       0.030700
    110 H67         19.3680    19.5060    20.3800 hc         1 D21       0.030700
    111 H68          3.9310    -0.8830     0.9310 hc         1 D21       0.039700
    112 H69          3.7190    -0.8840     3.3950 hc         1 D21       0.041200
    113 H70         12.0910    -0.8810     6.7020 hc         1 D21       0.035200
    114 H71         11.8790    -0.8820     9.1660 hc         1 D21       0.048200
    115 H50         21.4290    10.0370    19.7620 hc         1 D21       0.034700
@<TRIPOS>BOND
     1    11    12 1
     2    11    10 1
     3    12    13 1
     4     9    10 1
     5     9     8 1
     6     4     3 1
     7     4     5 1
     8     6     5 1
     9     6     7 1
    10     8     7 1
    11    13    14 1
    12    14    15 1
    13     3     2 1
    14    15    16 1
    15     2     1 1
    16    16    17 2
    17    16    18 1
    18    18    19 1
    19    19    20 1
    20    30    28 1
    21    30    31 1
    22    27    28 1
    23    27    20 1
    24    28    29 2
    25    32    31 1
    26    32    33 1
    27    20    21 1
    28    34    33 1
    29    34    35 1
    30    21    22 1
    31    35    36 1
    32    22    23 1
    33    26    23 1
    34    36    37 1
    35    23    24 1
    36    23    25 1
    37    37    38 2
    38    38    39 1
    39    39    40 1
    40    40    41 1
    41    41    42 1
    42    43    42 1
    43    43    44 1
    44    45    44 1
    45    45    46 1
    46     1    47 1
    47     1    48 1
    48     1    49 1
    49     2    50 1
    50     2    51 1
    51     3    52 1
    52     3    53 1
    53     4    54 1
    54     5    55 1
    55     6    56 1
    56     6    57 1
    57     7    58 1
    58     7    59 1
    59     8    60 1
    60     8    61 1
    61     9    62 1
    62     9    63 1
    63    10    64 1
    64    10    65 1
    65    11    66 1
    66    11    67 1
    67    12    68 1
    68    13    69 1
    69    14    70 1
    70    14    71 1
    71    15    72 1
    72    15    73 1
    73    19    74 1
    74    19    75 1
    75    20    76 1
    76    21    77 1
    77    21    78 1
    78    30    79 1
    79    30    80 1
    80    31    81 1
    81    31    82 1
    82    32    83 1
    83    32    84 1
    84    33    85 1
    85    33    86 1
    86    34    87 1
    87    34    88 1
    88    35    89 1
    89    35    90 1
    90    36    91 1
    91    36    92 1
    92    37    93 1
    93    38    94 1
    94    39    95 1
    95    40    96 1
    96    40    97 1
    97    41    98 1
    98    41    99 1
    99    42   100 1
   100    42   101 1
   101    43   102 1
   102    43   103 1
   103    44   104 1
   104    44   105 1
   105    45   106 1
   106    45   107 1
   107    46   108 1
   108    46   109 1
   109    46   110 1
   110     4   111 1
   111     5   112 1
   112    12   113 1
   113    13   114 1
   114    39   115 1
@<TRIPOS>SUBSTRUCTURE
     1 D21         1 TEMP              0 ****  ****    0 ROOT
