@<TRIPOS>MOLECULE
D22
   52    51     1     0     0
SMALL
bcc


@<TRIPOS>ATOM
      1 C2           0.0000     0.0000     0.0000 c3         1 D22      -0.028400
      2 C3           1.5300     0.0000     0.0000 c3         1 D22      -0.029900
      3 C4           2.0400     0.0000     1.4420 c3         1 D22      -0.029400
      4 C5           3.5700    -0.0000     1.4410 c3         1 D22      -0.028400
      5 C6           4.0800    -0.0010     2.8840 c3         1 D22      -0.027400
      6 C7           5.6100     0.0000     2.8840 c3         1 D22      -0.030400
      7 C8           6.1210    -0.0010     4.3250 c3         1 D22       0.142800
      8 C10          8.1170    -0.0010     5.6960 c3         1 D22       0.142800
      9 C17         15.8810    -0.0020     9.8160 c3         1 D22       0.006400
     10 C16         14.3510    -0.0030     9.8570 c3         1 D22      -0.028400
     11 C15         13.8020    -0.0030     8.4290 c3         1 D22      -0.029900
     12 C14         12.2730    -0.0020     8.4700 c3         1 D22      -0.029400
     13 C13         11.7240    -0.0020     7.0420 c3         1 D22      -0.028400
     14 C12         10.1950    -0.0020     7.0830 c3         1 D22      -0.027400
     15 C11          9.6460    -0.0010     5.6560 c3         1 D22      -0.030400
     16 N9           7.5900    -0.0010     4.3250 n7         1 D22      -0.587200
     17 C1          -0.5110     0.0010    -1.4420 c3         1 D22       0.006400
     18 H2          -0.3610    -0.8850     0.5100 hc         1 D22       0.011700
     19 H2A         -0.3610     0.8840     0.5120 hc         1 D22       0.011700
     20 H3           1.8910     0.8840    -0.5110 hc         1 D22       0.014700
     21 H3A          1.8910    -0.8840    -0.5110 hc         1 D22       0.014700
     22 H4           1.6790    -0.8850     1.9530 hc         1 D22       0.014200
     23 H4A          1.6790     0.8850     1.9530 hc         1 D22       0.014200
     24 H5           3.9310     0.8850     0.9310 hc         1 D22       0.015700
     25 H5A          3.9310    -0.8840     0.9300 hc         1 D22       0.015700
     26 H6           3.7190     0.8830     3.3950 hc         1 D22       0.014200
     27 H6A          3.7200    -0.8860     3.3940 hc         1 D22       0.014200
     28 H7           5.9720    -0.8840     2.3720 hc         1 D22       0.019450
     29 H7A          5.9700     0.8850     2.3740 hc         1 D22       0.019450
     30 H8           5.7590     0.8830     4.8370 h1         1 D22       0.006200
     31 H8A          5.7600    -0.8860     4.8350 h1         1 D22       0.006200
     32 H10          7.7700    -0.8860     6.2160 h1         1 D22       0.006200
     33 H10A         7.7700     0.8830     6.2170 h1         1 D22       0.006200
     34 H17         16.2280     0.8830     9.2970 hc         1 D22       0.000033
     35 H17A        16.2290    -0.8860     9.2960 hc         1 D22       0.000033
     36 H17B        16.2680    -0.0030    10.8280 hc         1 D22       0.000033
     37 H16         14.0030     0.8810    10.3770 hc         1 D22       0.011700
     38 H16A        14.0040    -0.8880    10.3770 hc         1 D22       0.011700
     39 H15         14.1490     0.8820     7.9090 hc         1 D22       0.014700
     40 H15A        14.1490    -0.8870     7.9080 hc         1 D22       0.014700
     41 H14         11.9260     0.8820     8.9910 hc         1 D22       0.014200
     42 H14A        11.9250    -0.8870     8.9900 hc         1 D22       0.014200
     43 H13         12.0710     0.8830     6.5220 hc         1 D22       0.015700
     44 H13A        12.0720    -0.8860     6.5210 hc         1 D22       0.015700
     45 H12          9.8480     0.8810     7.6050 hc         1 D22       0.014200
     46 H12A         9.8480    -0.8880     7.6030 hc         1 D22       0.014200
     47 H11          9.9930     0.8840     5.1360 hc         1 D22       0.019450
     48 H11A         9.9930    -0.8850     5.1340 hc         1 D22       0.019450
     49 HN9          7.9230     0.8090     3.8400 hn         1 D22       0.252800
     50 H1          -0.1510    -0.8830    -1.9540 hc         1 D22       0.000033
     51 H1A         -0.1510     0.8860    -1.9520 hc         1 D22       0.000033
     52 H1B         -1.5950     0.0010    -1.4410 hc         1 D22       0.000033
@<TRIPOS>BOND
     1     1     2 1   
     2     1    17 1   
     3     1    18 1   
     4     1    19 1   
     5     2     3 1   
     6     2    20 1   
     7     2    21 1   
     8     3     4 1   
     9     3    22 1   
    10     3    23 1   
    11     4     5 1   
    12     4    24 1   
    13     4    25 1   
    14     5     6 1   
    15     5    26 1   
    16     5    27 1   
    17     6     7 1   
    18     6    28 1   
    19     6    29 1   
    20     7    16 1   
    21     7    30 1   
    22     7    31 1   
    23     8    15 1   
    24     8    16 1   
    25     8    32 1   
    26     8    33 1   
    27     9    10 1   
    28     9    34 1   
    29     9    35 1   
    30     9    36 1   
    31    10    11 1   
    32    10    37 1   
    33    10    38 1   
    34    11    12 1   
    35    11    39 1   
    36    11    40 1   
    37    12    13 1   
    38    12    41 1   
    39    12    42 1   
    40    13    14 1   
    41    13    43 1   
    42    13    44 1   
    43    14    15 1   
    44    14    45 1   
    45    14    46 1   
    46    15    47 1   
    47    15    48 1   
    48    16    49 1   
    49    17    50 1   
    50    17    51 1   
    51    17    52 1   
@<TRIPOS>SUBSTRUCTURE
     1 D22         1 TEMP              0 ****  ****    0 ROOT
