@<TRIPOS>MOLECULE
molecule
   45    47     1     0     0
SMALL
bcc


@<TRIPOS>ATOM
      1 C1           0.0000     0.0000     0.0000 ca         1 D23      -0.197000
      2 C2           1.3870     0.0000     0.0000 ca         1 D23       0.208600
      3 C3           2.0820     0.0000     1.2030 ca         1 D23      -0.205000
      4 C4           1.3940     0.0060     2.4020 ca         1 D23      -0.080000
      5 C5           0.0140     0.0120     2.4110 ca         1 D23      -0.178000
      6 C6          -0.6910     0.0110     1.2080 cp         1 D23       0.002000
      7 N7           2.0850    -0.0060    -1.2110 nv         1 D23      -0.921200
      8 C8          -2.1750     0.0170     1.2170 cp         1 D23      -0.041000
      9 C9          -2.8730     0.7960     0.2820 ca         1 D23      -0.087000
     10 C10         -4.2330     0.8180     0.2670 ca         1 D23      -0.174300
     11 C11         -4.9550     0.0560     1.1980 ca         1 D23       0.473600
     12 C12         -4.2580    -0.7290     2.1500 ca         1 D23      -0.311600
     13 C13         -2.8610    -0.7460     2.1470 ca         1 D23      -0.085000
     14 N14         -6.2960     0.0500     1.2180 nb         1 D23      -0.735000
     15 C15         -6.9460    -0.6720     2.0990 ca         1 D23       0.650300
     16 N16         -6.3390    -1.4250     3.0030 nb         1 D23      -0.807000
     17 C17         -5.0160    -1.4920     3.0730 ca         1 D23       0.760200
     18 N18         -4.3950    -2.2790     4.0180 nu         1 D23      -0.884900
     19 C19         -5.1990    -3.0560     4.9670 c3         1 D23       0.245200
     20 C20         -6.0900    -4.0340     4.1980 c3         1 D23      -0.100767
     21 C21         -6.0730    -2.1080     5.7890 c3         1 D23      -0.100767
     22 C22         -4.2720    -3.8360     5.9000 c3         1 D23      -0.100767
     23 C23         -8.4520    -0.6460     2.0810 c3         1 D23       0.606600
     24 F24         -8.9040     0.5620     2.6240 f          1 D23      -0.210633
     25 F25         -8.9050    -0.7620     0.7620 f          1 D23      -0.210633
     26 F26         -8.9470    -1.7120     2.8400 f          1 D23      -0.210633
     27 H1          -0.5430    -0.0000    -0.9370 ha         1 D23       0.134000
     28 H3           3.1650    -0.0020     1.2010 ha         1 D23       0.130000
     29 H4           1.9400     0.0070     3.3380 ha         1 D23       0.130000
     30 H5          -0.5210     0.0190     3.3530 ha         1 D23       0.128000
     31 HN71         1.5840    -0.0110    -2.0770 hn         1 D23       0.430800
     32 HN72         3.0860    -0.0050    -1.2110 hn         1 D23       0.430800
     33 H9          -2.3220     1.3910    -0.4370 ha         1 D23       0.143000
     34 H10         -4.7590     1.4250    -0.4610 ha         1 D23       0.157000
     35 H13         -2.3230    -1.2300     2.9530 ha         1 D23       0.133000
     36 H18         -3.3960    -2.3200     4.0580 hn         1 D23       0.451800
     37 H201        -7.0560    -3.5780     4.0190 hc         1 D23       0.047478
     38 H202        -6.2200    -4.9380     4.7800 hc         1 D23       0.047478
     39 H203        -5.6250    -4.2780     3.2500 hc         1 D23       0.047478
     40 H211        -6.3430    -2.5850     6.7240 hc         1 D23       0.047478
     41 H212        -6.9720    -1.8710     5.2320 hc         1 D23       0.047478
     42 H213        -5.5250    -1.1970     5.9940 hc         1 D23       0.047478
     43 H221        -3.6240    -4.4760     5.3140 hc         1 D23       0.047478
     44 H222        -4.8660    -4.4420     6.5740 hc         1 D23       0.047478
     45 H223        -3.6710    -3.1410     6.4750 hc         1 D23       0.047478
@<TRIPOS>BOND
     1     1     2 ar
     2     1     6 ar
     3     1    27 1
     4     2     3 ar
     5     2     7 1
     6     3     4 ar
     7     3    28 1
     8     4     5 ar
     9     4    29 1
    10     5     6 ar
    11     5    30 1
    12     6     8 1
    13     7    31 1
    14     7    32 1
    15     8     9 ar
    16     8    13 ar
    17     9    10 ar
    18     9    33 1
    19    10    11 ar
    20    10    34 1
    21    11    12 ar
    22    11    14 ar
    23    12    13 ar
    24    12    17 ar
    25    13    35 1
    26    14    15 ar
    27    15    16 ar
    28    15    23 1
    29    16    17 ar
    30    17    18 1
    31    18    19 1
    32    18    36 1
    33    19    20 1
    34    19    21 1
    35    19    22 1
    36    20    37 1
    37    20    38 1
    38    20    39 1
    39    21    40 1
    40    21    41 1
    41    21    42 1
    42    22    43 1
    43    22    44 1
    44    22    45 1
    45    23    24 1
    46    23    25 1
    47    23    26 1
@<TRIPOS>SUBSTRUCTURE
     1 D23         1 TEMP              0 ****  ****    0 ROOT
