@<TRIPOS>MOLECULE
D24
   65    69     1     0     0
SMALL
bcc


@<TRIPOS>ATOM
      1 C7          1.3470   -0.1280    0.0500 c3        1 D24      0.412000
      2 N2         -0.0980   -0.0020   -0.3920 n4        1 D24     -0.779000
      3 N1          1.5140   -0.2280    1.5570 n4        1 D24     -0.866600
      4 C8         -0.8280    1.1810    0.1880 c3        1 D24      0.148900
      5 C9         -1.9600    1.6430   -0.7380 c2        1 D24     -0.284200
      6 C10        -3.1180    1.6790   -0.0360 ce        1 D24     -0.009750
      7 C11        -2.8740    1.1910    1.3430 ce        1 D24     -0.009750
      8 C12        -1.5650    0.8530    1.4810 c2        1 D24     -0.284200
      9 C1          3.3400   -3.4150   -1.9090 ca        1 D24     -0.024000
     10 C2          2.2360   -3.6640   -1.0700 ca        1 D24     -0.097750
     11 C3          1.5810   -2.6160   -0.4330 ca        1 D24     -0.079500
     12 C4          2.0140   -1.2930   -0.6200 ca        1 D24     -0.273800
     13 C5          3.1100   -1.0340   -1.4570 ca        1 D24     -0.079500
     14 C6          3.7630   -2.0830   -2.0930 ca        1 D24     -0.097750
     15 CA          4.0610   -4.4620   -2.5860 cc        1 D24      0.276700
     16 O1          3.6660   -5.8020   -2.4210 os        1 D24     -0.350800
     17 CB          5.1660   -4.3920   -3.4310 cd        1 D24     -0.171800
     18 CB'         5.4870   -5.7360   -3.8130 cd        1 D24     -0.171800
     19 CA'         4.5640   -6.5690   -3.1860 cc        1 D24      0.276700
     20 C1'         4.4280   -8.0020   -3.2260 ca        1 D24     -0.024000
     21 C2'         3.3450   -8.6850   -2.6370 ca        1 D24     -0.097750
     22 C3'         3.2530  -10.0690   -2.7210 ca        1 D24     -0.079500
     23 C4'         4.2430  -10.8060   -3.3920 ca        1 D24     -0.273800
     24 C5'         5.3290  -10.1360   -3.9770 ca        1 D24     -0.079500
     25 C6'         5.4180   -8.7510   -3.8930 ca        1 D24     -0.097750
     26 C7'         4.1850  -12.3000   -3.5160 c3        1 D24      0.412000
     27 N2'         2.9650  -12.7270   -4.3070 n4        1 D24     -0.779000
     28 N1'         4.2810  -12.9400   -2.1410 n4        1 D24     -0.866600
     29 C8'         2.7320  -14.2130   -4.3730 c3        1 D24      0.148900
     30 C9'         1.7460  -14.5630   -5.4930 c2        1 D24     -0.284200
     31 CAX         2.3120  -15.4870   -6.3070 ce        1 D24     -0.009750
     32 CBX         3.6950  -15.7670   -5.8500 ce        1 D24     -0.009750
     33 CCX         3.9740  -15.0090   -4.7580 c2        1 D24     -0.284200
     34 H7          1.8570    0.8540   -0.2520 hx        1 D24      0.171200
     35 HN2        -0.0720    0.1020   -1.4230 hn        1 D24      0.485050
     36 H11A        1.1510   -1.1210    1.9140 hn        1 D24      0.489133
     37 H12A        2.5280   -0.1940    1.7540 hn        1 D24      0.489133
     38 H8         -0.0960    2.0300    0.3300 hx        1 D24      0.128200
     39 H9         -1.7730    1.9640   -1.7640 ha        1 D24      0.175500
     40 H10        -4.1020    2.0260   -0.3800 ha        1 D24      0.218500
     41 H11        -3.6630    1.1460    2.1070 ha        1 D24      0.218500
     42 H12        -1.0750    0.5050    2.3860 ha        1 D24      0.175500
     43 H3          0.7200   -2.8450    0.2150 ha        1 D24      0.152250
     44 H5          3.4690   -0.0020   -1.6230 ha        1 D24      0.152250
     45 H6          4.6240   -1.8600   -2.7500 ha        1 D24      0.184000
     46 HB          5.7050   -3.5010   -3.7570 ha        1 D24      0.198000
     47 HB'         6.3060   -6.0220   -4.4760 ha        1 D24      0.198000
     48 H2'         2.5660   -8.1090   -2.1080 ha        1 D24      0.184000
     49 H3'         2.3910  -10.5720   -2.2540 ha        1 D24      0.152250
     50 H5'         6.1210  -10.6920   -4.5090 ha        1 D24      0.152250
     51 H6'         6.2810   -8.2400   -4.3580 ha        1 D24      0.184000
     52 H7'         5.0890  -12.6980   -4.1020 hx        1 D24      0.171200
     53 HN2'        2.1190  -12.2630   -3.9500 hn        1 D24      0.485050
     54 H1'1        3.5230  -12.6250   -1.5220 hn        1 D24      0.489133
     55 H1'2        5.1780  -12.6330   -1.7270 hn        1 D24      0.489133
     56 H8'         2.3100  -14.5570   -3.3840 hx        1 D24      0.128200
     57 H9'         0.7330  -14.1590   -5.5200 ha        1 D24      0.175500
     58 H10'        1.8550  -15.9930   -7.1680 ha        1 D24      0.218500
     59 H11'        4.3480  -16.5000   -6.3430 ha        1 D24      0.218500
     60 H12'        4.8860  -15.0190   -4.1660 ha        1 D24      0.175500
     61 H22        -0.6230   -0.8620   -0.1820 hn        1 D24      0.485050
     62 H13         1.0500    0.5500    2.0480 hn        1 D24      0.489133
     63 H2'2        3.1220  -12.3840   -5.2730 hn        1 D24      0.485050
     64 H1'3        4.2760  -13.9690   -2.1990 hn        1 D24      0.489133
     65 H2          1.8940   -4.7030   -0.9200 ha        1 D24      0.184000
@<TRIPOS>BOND
     1    1    2 1   
     2    1    3 1   
     3    1   12 1   
     4    1   34 1   
     5    2    4 1   
     6    2   35 1   
     7    2   61 1   
     8    3   36 1   
     9    3   37 1   
    10    3   62 1   
    11    4    5 1   
    12    4    8 1   
    13    4   38 1   
    14    5    6 2   
    15    5   39 1   
    16    6    7 1   
    17    6   40 1   
    18    7    8 2   
    19    7   41 1   
    20    8   42 1   
    21    9   10 ar  
    22    9   14 ar  
    23    9   15 1   
    24   10   11 ar  
    25   10   65 1   
    26   11   12 ar  
    27   11   43 1   
    28   12   13 ar  
    29   13   14 ar  
    30   13   44 1   
    31   14   45 1   
    32   15   16 1   
    33   15   17 2   
    34   16   19 1   
    35   17   18 1   
    36   17   46 1   
    37   18   19 2   
    38   18   47 1   
    39   19   20 1   
    40   20   21 ar  
    41   20   25 ar  
    42   21   22 ar  
    43   21   48 1   
    44   22   23 ar  
    45   22   49 1   
    46   23   24 ar  
    47   23   26 1   
    48   24   25 ar  
    49   24   50 1   
    50   25   51 1   
    51   26   27 1   
    52   26   28 1   
    53   26   52 1   
    54   27   29 1   
    55   27   53 1   
    56   27   63 1   
    57   28   54 1   
    58   28   55 1   
    59   28   64 1   
    60   29   30 1   
    61   29   33 1   
    62   29   56 1   
    63   30   31 2   
    64   30   57 1   
    65   31   32 1   
    66   31   58 1   
    67   32   33 2   
    68   32   59 1   
    69   33   60 1   
@<TRIPOS>SUBSTRUCTURE
     1 D24         1 TEMP              0 ****  ****    0 ROOT
