@<TRIPOS>MOLECULE
D25
   25    27     1     0     0
SMALL
bcc


@<TRIPOS>ATOM
      1 C1         -0.0260   -0.1030   -0.0630 cc        1 D25     -0.249300
      2 C2          1.4170    0.0400   -0.0040 cc        1 D25      0.245300
      3 C3          2.3110    0.0320   -1.1190 cc        1 D25      0.241700
      4 C4          3.6770    0.1480   -1.2830 cd        1 D25     -0.327600
      5 C6         -0.4440   -0.0320    1.2700 cd        1 D25     -0.153300
      6 O10         1.7320   -0.1290   -2.4080 os        1 D25     -0.113100
      7 N11         2.6730   -0.1160   -3.3250 nc        1 D25     -0.355300
      8 C12         3.8790    0.0470   -2.7310 cd        1 D25      0.371800
      9 C13         5.1640    0.1120   -3.4070 ca        1 D25     -0.132500
     10 C14         5.3360   -0.4500   -4.6800 ca        1 D25     -0.101000
     11 C15         6.5790   -0.3840   -5.3090 ca        1 D25     -0.135500
     12 C16         7.6540    0.2410   -4.6790 ca        1 D25     -0.117000
     13 C17         7.4860    0.8040   -3.4130 ca        1 D25     -0.135500
     14 C18         6.2480    0.7410   -2.7780 ca        1 D25     -0.101000
     15 N6          1.8180    0.1890    1.3030 nd        1 D25     -0.487800
     16 N10         0.7150    0.1440    2.0370 na        1 D25     -0.008600
     17 H1         -0.6190   -0.2360   -0.9610 ha        1 D25      0.182000
     18 H6         -1.4340   -0.0890    1.7200 h4        1 D25      0.182000
     19 H4          4.4450    0.2750   -0.5280 ha        1 D25      0.183000
     20 H10         0.7720    0.2320    3.0250 hn        1 D25      0.325700
     21 H14         4.4930   -0.9440   -5.1860 ha        1 D25      0.142500
     22 H18         6.1190    1.1920   -1.7820 ha        1 D25      0.142500
     23 H15         6.7080   -0.8270   -6.3080 ha        1 D25      0.134500
     24 H16         8.6320    0.2920   -5.1790 ha        1 D25      0.133000
     25 H17         8.3320    1.3000   -2.9150 ha        1 D25      0.134500
@<TRIPOS>BOND
     1    1    2 1
     2    1    5 2
     3    1   17 1
     4    2    3 1
     5    2   15 2
     6    3    4 2
     7    3    6 1
     8    4    8 1
     9    4   19 1
    10    5   16 1
    11    5   18 1
    12    6    7 1
    13    7    8 2
    14    8    9 1
    15    9   10 ar
    16    9   14 ar
    17   10   11 ar
    18   10   21 1
    19   11   12 ar
    20   11   23 1
    21   12   13 ar
    22   12   24 1
    23   13   14 ar
    24   13   25 1
    25   14   22 1
    26   15   16 1
    27   16   20 1
@<TRIPOS>SUBSTRUCTURE
     1 D25         1 TEMP              0 ****  ****    0 ROOT
