@<TRIPOS>MOLECULE
D26
   25    27     1     0     0
SMALL
bcc


@<TRIPOS>ATOM
      1 C1          0.1230   -0.2250   -0.1240 cc        1 D26     -0.271300
      2 C2          1.5370    0.0990   -0.0620 cc        1 D26      0.384800
      3 C3          2.4340    0.1590   -1.1750 cc        1 D26     -0.229900
      4 C6         -0.3190   -0.1570    1.2030 cd        1 D26     -0.148300
      5 N11         3.1000    0.0310   -3.4210 nd        1 D26     -0.631000
      6 C12         4.2390    0.3600   -2.7850 cc        1 D26      0.429900
      7 C13         5.5260    0.5620   -3.4290 ca        1 D26     -0.129500
      8 C14         5.7520    0.1400   -4.7470 ca        1 D26     -0.105000
      9 C15         6.9980    0.3400   -5.3400 ca        1 D26     -0.133000
     10 C16         8.0250    0.9580   -4.6300 ca        1 D26     -0.120000
     11 C17         7.8060    1.3810   -3.3180 ca        1 D26     -0.133000
     12 C18         6.5650    1.1870   -2.7200 ca        1 D26     -0.105000
     13 N6          1.8960    0.3420    1.2420 nd        1 D26     -0.515800
     14 S3          4.0700    0.5280   -1.0810 ss        1 D26     -0.027300
     15 C4          2.0790   -0.0820   -2.5070 cd        1 D26      0.341200
     16 N10         0.7960    0.1890    1.9720 na        1 D26     -0.010600
     17 H1         -0.4480   -0.4640   -1.0120 ha        1 D26      0.169000
     18 H6         -1.3010   -0.3210    1.6450 h4        1 D26      0.178000
     19 H4          1.0750   -0.3440   -2.8620 h4        1 D26      0.044100
     20 H10         0.8300    0.3190    2.9550 hn        1 D26      0.323700
     21 H14         4.9460   -0.3480   -5.3170 ha        1 D26      0.144000
     22 H18         6.3960    1.5280   -1.6850 ha        1 D26      0.144000
     23 H15         7.1680    0.0070   -6.3750 ha        1 D26      0.134500
     24 H16         9.0070    1.1140   -5.1010 ha        1 D26      0.133000
     25 H17         8.6140    1.8720   -2.7550 ha        1 D26      0.134500
@<TRIPOS>BOND
     1    1    2 1   
     2    1    4 2   
     3    1   17 1   
     4    2    3 1   
     5    2   13 2   
     6    3   14 1   
     7    3   15 2   
     8    4   16 1   
     9    4   18 1   
    10    5    6 2   
    11    5   15 1   
    12    6    7 1   
    13    6   14 1   
    14    7    8 ar  
    15    7   12 ar  
    16    8    9 ar  
    17    8   21 1   
    18    9   10 ar  
    19    9   23 1   
    20   10   11 ar  
    21   10   24 1   
    22   11   12 ar  
    23   11   25 1   
    24   12   22 1   
    25   13   16 1   
    26   15   19 1   
    27   16   20 1   
@<TRIPOS>SUBSTRUCTURE
     1 D26         1 TEMP              0 ****  ****    0 ROOT
