@<TRIPOS>MOLECULE
molecule
   25    27     1     0     0
SMALL
bcc


@<TRIPOS>ATOM
      1 C1           0.0000     0.0000     0.0000 cc         1 D26      -0.316300
      2 C2           1.4030     0.0000     0.0000 cc         1 D26       0.427800
      3 C3           2.2920     0.0480    -1.1650 cc         1 D26      -0.144900
      4 C6          -0.3810    -0.0270     1.2980 cd         1 D26      -0.117300
      5 N11          3.1440    -0.0710    -3.2940 nd         1 D26      -0.713000
      6 C12          4.3140     0.3800    -2.8450 cc         1 D26       0.553900
      7 C13          5.6080     0.6200    -3.5130 ca         1 D26      -0.115500
      8 C14          5.8610     0.1010    -4.7840 ca         1 D26      -0.097500
      9 C15          7.0970     0.3010    -5.3620 ca         1 D26      -0.131500
     10 C16          8.0830     1.0000    -4.6840 ca         1 D26      -0.115000
     11 C17          7.8470     1.5050    -3.4170 ca         1 D26      -0.131500
     12 C18          6.6080     1.3160    -2.8260 ca         1 D26      -0.097500
     13 N6           1.8480     0.0000     1.2390 nd         1 D26      -0.500800
     14 S3           3.9900     0.5840    -1.1080 ss         1 D26      -0.249300
     15 C4           2.1170    -0.2430    -2.4950 cd         1 D26       0.385200
     16 N10          0.7340    -0.0240     2.0720 na         1 D26      -0.038600
     17 H1          -0.6490     0.0050    -0.8670 ha         1 D26       0.163000
     18 H6          -1.4020    -0.0390     1.6590 h4         1 D26       0.171000
     19 H4           1.1690    -0.6090    -2.8700 h4         1 D26       0.042100
     20 H10          0.7530    -0.0350     3.0730 hn         1 D26       0.332700
     21 H14          5.0900    -0.4450    -5.3150 ha         1 D26       0.146000
     22 H18          6.4130     1.7070    -1.8340 ha         1 D26       0.146000
     23 H15          7.2990    -0.0930    -6.3510 ha         1 D26       0.135500
     24 H16          9.0500     1.1480    -5.1490 ha         1 D26       0.131000
     25 H17          8.6250     2.0460    -2.8920 ha         1 D26       0.135500
@<TRIPOS>BOND
     1     1     2 1
     2     1     4 2
     3     2     3 1
     4     2    13 2
     5     3    14 1
     6     3    15 2
     7     4    16 1
     8     5     6 2
     9     5    15 1
    10     6     7 1
    11     6    14 1
    12     7     8 ar
    13     7    12 ar
    14     8     9 ar
    15     9    10 ar
    16    10    11 ar
    17    11    12 ar
    18    13    16 1
    19     1    17 1
    20     4    18 1
    21    15    19 1
    22    16    20 1
    23     8    21 1
    24    12    22 1
    25     9    23 1
    26    10    24 1
    27    11    25 1
@<TRIPOS>SUBSTRUCTURE
     1 D26         1 TEMP              0 ****  ****    0 ROOT
