@<TRIPOS>MOLECULE
molecule
   40    41     1     0     0
SMALL
bcc


@<TRIPOS>ATOM
      1 C1           0.0000     0.0000     0.0000 ca         1 D27      -0.151600
      2 C2           1.4180     0.0000     0.0000 ca         1 D27       0.092600
      3 C3          -0.7870     0.0110    -1.2500 c          1 D27       0.895200
      4 N4           2.1430    -0.0850    -1.2060 ns         1 D27      -0.457100
      5 C5           3.5080    -0.0450    -1.3480 c          1 D27       0.656300
      6 C6           4.1300    -0.2190    -2.6600 ce         1 D27      -0.205200
      7 C7           3.4930    -1.6160    -7.2910 ca         1 D27       0.085100
      8 C8           3.3690    -0.4470    -3.7500 cf         1 D27      -0.089200
      9 C9           4.7380    -1.1440    -7.7440 ca         1 D27       0.084100
     10 C10          3.0920    -1.3800    -5.9890 ca         1 D27      -0.130000
     11 O11         -0.2440     0.0290    -2.3330 o          1 D27      -0.843300
     12 O12          4.2680     0.1290    -0.4110 o          1 D27      -0.631100
     13 C13          3.9070    -0.6590    -5.1050 ca         1 D27      -0.054800
     14 C14          5.5700    -0.4310    -6.8550 ca         1 D27      -0.166000
     15 O15         -2.1330     0.0230    -1.1990 o          1 D27      -0.843300
     16 C16          5.1640    -0.1820    -5.5470 ca         1 D27      -0.106000
     17 C18         -0.6940     0.0250     1.2140 ca         1 D27      -0.073000
     18 C20          2.0680     0.0000     1.2410 ca         1 D27      -0.193000
     19 C21          1.4760    -1.5780    -8.3900 c3         1 D27       0.118700
     20 C22          5.4960    -0.2460    -9.7670 c3         1 D27       0.122700
     21 C23         -0.0180     0.0380     2.4230 ca         1 D27      -0.190000
     22 C24          1.3680     0.0280     2.4420 ca         1 D27      -0.127000
     23 H18         -1.7780     0.0290     1.2090 ha         1 D27       0.157000
     24 H4           1.6070    -0.1850    -2.0450 hn         1 D27       0.367500
     25 H20          3.1510    -0.0040     1.2660 ha         1 D27       0.154000
     26 H6           5.2090    -0.1820    -2.7540 ha         1 D27       0.144000
     27 H8           2.2940    -0.4970    -3.6250 ha         1 D27       0.165000
     28 H10          2.1310    -1.7480    -5.6510 ha         1 D27       0.159000
     29 H14          6.5310    -0.0660    -7.1970 ha         1 D27       0.132000
     30 H16          5.8080     0.3660    -4.8700 ha         1 D27       0.140000
     31 H211         1.0990    -1.8420    -9.3710 h1         1 D27       0.038367
     32 H212         1.6890    -0.5160    -8.3590 h1         1 D27       0.038367
     33 H213         0.7320    -1.8190    -7.6410 h1         1 D27       0.038367
     34 H23         -0.5720     0.0590     3.3540 ha         1 D27       0.106000
     35 H221         6.5360    -0.0160    -9.5690 h1         1 D27       0.033700
     36 H222         5.3600    -0.4180   -10.8280 h1         1 D27       0.033700
     37 H223         4.8760     0.5860    -9.4530 h1         1 D27       0.033700
     38 H24          1.9020     0.0330     3.3850 ha         1 D27       0.108000
     39 O17          2.6730    -2.3280    -8.1190 os         1 D27      -0.323900
     40 O19          5.1180    -1.4270    -9.0370 os         1 D27      -0.320900
@<TRIPOS>BOND
     1     1     2 ar
     2     1     3 1
     3     1    17 ar
     4     2     4 1
     5     2    18 ar
     6     3    11 1
     7     3    15 1
     8     4     5 1
     9     5     6 1
    10     5    12 2
    11     6     8 2
    12     7     9 ar
    13     7    10 ar
    14     7    39 1
    15     8    13 1
    16     9    14 ar
    17     9    40 1
    18    10    13 ar
    19    13    16 ar
    20    14    16 ar
    21    39    19 1
    22    17    21 ar
    23    40    20 1
    24    18    22 ar
    25    21    22 ar
    26    17    23 1
    27     4    24 1
    28    18    25 1
    29     6    26 1
    30     8    27 1
    31    10    28 1
    32    14    29 1
    33    16    30 1
    34    19    31 1
    35    19    32 1
    36    19    33 1
    37    21    34 1
    38    20    35 1
    39    20    36 1
    40    20    37 1
    41    22    38 1
@<TRIPOS>SUBSTRUCTURE
     1 D27         1 TEMP              0 ****  ****    0 ROOT
