@<TRIPOS>MOLECULE
D27
   40    43     1     0     0
SMALL
bcc


@<TRIPOS>ATOM
      1 C1           0.0000     0.0000     0.0000 ca         1 D27      -0.129000
      2 C2           1.4180     0.0000     0.0000 ca         1 D27      -0.030000
      3 C3          -0.7870     0.0110    -1.2500 c2         1 D27       0.437000
      4 N4           2.1430    -0.0850    -1.2060 nu         1 D27       0.076000
      5 C5           3.5080    -0.0450    -1.3480 c3         1 D27       0.265000
      6 C6           4.1300    -0.2190    -2.6600 c2         1 D27      -0.059000
      7 C7           3.4930    -1.6160    -7.2910 c2         1 D27       0.075000
      8 C8           3.3690    -0.4470    -3.7500 c2         1 D27      -0.057000
      9 C9           4.7380    -1.1440    -7.7440 c2         1 D27       0.011000
     10 C10          3.0920    -1.3800    -5.9890 c2         1 D27      -0.168000
     11 O11         -0.2440     0.0290    -2.3330 o          1 D27      -0.617500
     12 O12          4.2680     0.1290    -0.4110 o          1 D27      -0.463000
     13 C13          3.9070    -0.6590    -5.1050 c3         1 D27       0.066000
     14 C14          5.5700    -0.4310    -6.8550 c2         1 D27      -0.111000
     15 O15         -2.1330     0.0230    -1.1990 o          1 D27      -0.617500
     16 C16          5.1640    -0.1820    -5.5470 c2         1 D27      -0.151000
     17 C18         -0.6940     0.0250     1.2140 ca         1 D27      -0.045000
     18 C20          2.0680     0.0000     1.2410 ca         1 D27      -0.186000
     19 C21          1.4760    -1.5780    -8.3900 c3         1 D27       0.050000
     20 C22          5.4960    -0.2460    -9.7670 c3         1 D27       0.050000
     21 C23         -0.0180     0.0380     2.4230 ca         1 D27      -0.168000
     22 C24          1.3680     0.0280     2.4420 ca         1 D27      -0.099000
     23 H18         -1.7780     0.0290     1.2090 ha         1 D27       0.130000
     24 H4           1.6070    -0.1850    -2.0450 hn         1 D27       0.158000
     25 H20          3.1510    -0.0040     1.2660 ha         1 D27       0.143000
     26 H6           3.6520     0.6970    -2.3360 DU         1 D27       0.039000
     27 H8           3.8790     0.3170    -4.3230 DU         1 D27       0.052000
     28 H10          2.1310    -1.7480    -5.6510 ha         1 D27       0.145000
     29 H14          6.5310    -0.0660    -7.1970 ha         1 D27       0.108000
     30 H16          5.8080     0.3660    -4.8700 ha         1 D27       0.119000
     31 H211         0.7310    -1.8010    -7.6360 h1         1 D27       0.033333
     32 H212         1.6980    -0.5180    -8.3770 h1         1 D27       0.033333
     33 H213         1.0950    -1.8550    -9.3660 h1         1 D27       0.033333
     34 H23         -0.5720     0.0590     3.3540 ha         1 D27       0.086000
     35 H221         4.8850     0.5890    -9.4440 h1         1 D27       0.028667
     36 H222         6.5390    -0.0230    -9.5770 h1         1 D27       0.028667
     37 H223         5.3490    -0.4130   -10.8270 h1         1 D27       0.028667
     38 H24          1.9020     0.0330     3.3850 ha         1 D27       0.085000
     39 O17          2.6730    -2.3280    -8.1190 os         1 D27      -0.195000
     40 O19          5.1180    -1.4270    -9.0370 os         1 D27      -0.185000
@<TRIPOS>BOND
     1     1     2 1   
     2     1     3 1   
     3     1    17 1   
     4     2     4 1   
     5     2    18 1   
     6     3    11 1   
     7     3    15 1   
     8     4     5 1   
     9     4    24 1   
    10     5     6 1   
    11     5    12 1   
    12     5    26 1   
    13     6     8 1   
    14     6    26 1   
    15     7     9 1   
    16     7    10 1   
    17     7    39 1   
    18     8    13 1   
    19     8    27 1   
    20     9    14 1   
    21     9    40 1   
    22    10    13 1   
    23    10    28 1   
    24    13    16 1   
    25    13    27 1   
    26    14    16 1   
    27    14    29 1   
    28    16    30 1   
    29    17    21 1   
    30    17    23 1   
    31    18    22 1   
    32    18    25 1   
    33    19    31 1   
    34    19    32 1   
    35    19    33 1   
    36    19    39 1   
    37    20    35 1   
    38    20    36 1   
    39    20    37 1   
    40    20    40 1   
    41    21    22 1   
    42    21    34 1   
    43    22    38 1   
@<TRIPOS>SUBSTRUCTURE
     1 D27         1 TEMP              0 ****  ****    0 ROOT
