@<TRIPOS>MOLECULE
D28
   36    38     1     0     0
SMALL
bcc


@<TRIPOS>ATOM
      1 C1           0.0000     0.0000     0.0000 cc         1 D28       0.465800
      2 C2          -0.7090     0.0090    -1.3020 ca         1 D28      -0.127500
      3 N3           1.3300     0.0000     0.0000 nc         1 D28      -0.729000
      4 C4          -0.6700    -0.0080     1.1870 cd         1 D28      -0.129400
      5 C5          -1.8810    -0.7230    -1.4960 ca         1 D28      -0.067000
      6 C6          -0.1740     0.7550    -2.3510 ca         1 D28      -0.050000
      7 C7           2.0400     0.0000     1.1120 cd         1 D28       0.627300
      8 S8           0.7170    -0.0190     2.3130 ss         1 D28      -0.471300
      9 C9          -2.5190    -0.7170    -2.7140 ca         1 D28      -0.127300
     10 C10         -0.8170     0.7580    -3.5700 ca         1 D28      -0.141000
     11 N11          3.4310     0.0050     1.2170 nu         1 D28      -0.197300
     12 C12         -1.9800     0.0260    -3.7480 ca         1 D28       0.091900
     13 C13         -3.7840    -1.5060    -2.9170 c3         1 D28       0.073200
     14 C14          4.2500     0.3240     2.3110 ca         1 D28      -0.050400
     15 F15         -2.5910     0.0560    -4.9480 f          1 D28      -0.135900
     16 C16          5.5860    -0.0480     2.1850 ca         1 D28      -0.216000
     17 C17          3.8160     0.9730     3.4780 ca         1 D28      -0.154000
     18 C18          6.4940     0.2090     3.1940 ca         1 D28       0.163100
     19 C19          4.7050     1.2350     4.4940 ca         1 D28      -0.046000
     20 C20          6.0630     0.8590     4.3690 ca         1 D28      -0.078600
     21 O21          7.7920    -0.1690     3.0460 oh         1 D28      -0.466100
     22 C22          7.0570     1.1240     5.4370 c          1 D28       0.977200
     23 O23          7.4440     0.1150     6.2490 o          1 D28      -0.875800
     24 O24          7.5420     2.2380     5.5820 o          1 D28      -0.875800
     25 H4          -1.5130     0.0490     1.8650 h4         1 D28       0.187000
     26 H5          -2.2940    -1.3020    -0.6780 ha         1 D28       0.114000
     27 H6           0.7360     1.3260    -2.2100 ha         1 D28       0.125000
     28 H10         -0.4110     1.3330    -4.3930 ha         1 D28       0.115000
     29 H11          3.9200    -0.2600     0.3850 hn         1 D28       0.271800
     30 H131        -3.6390    -2.2230    -3.7150 hc         1 D28       0.008033
     31 H132        -4.5910    -0.8320    -3.1800 hc         1 D28       0.008033
     32 H133        -4.0340    -2.0290    -2.0020 hc         1 D28       0.008033
     33 H16          5.9180    -0.5480     1.2830 ha         1 D28       0.101000
     34 H17          2.7780     1.2640     3.5800 ha         1 D28       0.109000
     35 H19          4.3650     1.7360     5.3930 ha         1 D28       0.111000
     36 H21          8.1800     0.3110     2.3330 ho         1 D28       0.383000
@<TRIPOS>BOND
     1     1     2 1   
     2     1     3 1   
     3     1     4 2   
     4     2     5 ar  
     5     2     6 ar  
     6     3     7 2   
     7     4     8 1   
     8     4    25 1   
     9     5     9 ar  
    10     5    26 1   
    11     6    10 ar  
    12     6    27 1   
    13     7     8 1   
    14     7    11 1   
    15     9    12 ar  
    16     9    13 1   
    17    10    12 ar  
    18    10    28 1   
    19    11    14 1   
    20    11    29 1   
    21    12    15 1   
    22    13    30 1   
    23    13    31 1   
    24    13    32 1   
    25    14    16 ar  
    26    14    17 ar  
    27    16    18 ar  
    28    16    33 1   
    29    17    19 ar  
    30    17    34 1   
    31    18    20 ar  
    32    18    21 1   
    33    19    20 ar  
    34    19    35 1   
    35    20    22 1   
    36    21    36 1   
    37    22    23 1   
    38    22    24 1   
@<TRIPOS>SUBSTRUCTURE
     1 D28         1 TEMP              0 ****  ****    0 ROOT
