@<TRIPOS>MOLECULE
molecule
   47    50     1     0     0
SMALL
bcc


@<TRIPOS>ATOM
      1 C1           0.0000     0.0000     0.0000 ca         1 D2A      -0.079000
      2 C2           1.3770     0.0000     0.0000 ca         1 D2A      -0.107000
      3 C3           2.0750     0.0000     1.2080 cp         1 D2A       0.022000
      4 C4           1.3780     0.0060     2.4170 ca         1 D2A      -0.107000
      5 C5           0.0000     0.0140     2.4170 ca         1 D2A      -0.079000
      6 C6          -0.6980     0.0130     1.2080 ca         1 D2A      -0.195900
      7 C7           3.5570    -0.0060     1.2080 cp         1 D2A      -0.048000
      8 C8           4.2510    -0.7850     0.2820 ca         1 D2A      -0.106500
      9 C9           5.6270    -0.7910     0.2810 ca         1 D2A      -0.086500
     10 C10          6.3300    -0.0180     1.2080 ca         1 D2A      -0.111900
     11 C11          5.6340     0.7610     2.1360 ca         1 D2A      -0.086500
     12 C12          4.2580     0.7700     2.1320 ca         1 D2A      -0.106500
     13 C13          7.8070    -0.0260     1.2080 cc         1 D2A       0.515400
     14 N14          8.5570    -1.0850     1.0210 nd         1 D2A      -0.583100
     15 C15          9.8590    -0.7410     1.0800 ca         1 D2A       0.144400
     16 C16          9.9120     0.6430     1.3340 ca         1 D2A      -0.113200
     17 N17          8.6000     1.0720     1.4100 na         1 D2A      -0.243300
     18 C18         11.1360     1.2780     1.4530 ca         1 D2A      -0.013000
     19 C19         11.0490    -1.4670     0.9510 ca         1 D2A      -0.041000
     20 C20         12.2510    -0.8360     1.0690 ca         1 D2A      -0.153000
     21 C21         12.3100     0.5400     1.3210 ca         1 D2A      -0.197900
     22 C22         13.6220     1.2120     1.4460 ce         1 D2A       0.550800
     23 N23         14.7850     0.4830     1.3150 nz         1 D2A      -0.800600
     24 N24         13.6780     2.4930     1.6790 n2         1 D2A      -0.695100
     25 C25         -2.1770     0.0200     1.2080 ce         1 D2A       0.539800
     26 N26         -2.8660     0.0200     0.0150 nz         1 D2A      -0.801600
     27 N27         -2.8290     0.0270     2.3370 n2         1 D2A      -0.677100
     28 H1          -0.5410    -0.0000    -0.9380 ha         1 D2A       0.142500
     29 H2           1.9190    -0.0080    -0.9380 ha         1 D2A       0.163500
     30 H4           1.9190     0.0070     3.3550 ha         1 D2A       0.163500
     31 H5          -0.5410     0.0210     3.3550 ha         1 D2A       0.142500
     32 H8           3.7060    -1.3840    -0.4380 ha         1 D2A       0.147500
     33 H9           6.1660    -1.3960    -0.4390 ha         1 D2A       0.154500
     34 H11          6.1780     1.3620     2.8550 ha         1 D2A       0.154500
     35 H12          3.7180     1.3740     2.8510 ha         1 D2A       0.147500
     36 H17          8.2920     2.0240     1.4290 hn         1 D2A       0.322700
     37 H18         11.1810     2.3430     1.6480 ha         1 D2A       0.167000
     38 H19         11.0150    -2.5320     0.7560 ha         1 D2A       0.171000
     39 H20         13.1680    -1.4040     0.9670 ha         1 D2A       0.111000
     40 H231        14.8110    -0.2320     2.0150 hn         1 D2A       0.466800
     41 H232        15.5730     1.0890     1.4270 hn         1 D2A       0.466800
     42 H24         14.5650     2.9490     1.7630 hn         1 D2A       0.434400
     43 H261        -2.6310    -0.8010    -0.5070 hn         1 D2A       0.466467
     44 H262        -3.8500     0.0280     0.1970 hn         1 D2A       0.466467
     45 H27         -3.8300     0.0320     2.3380 hn         1 D2A       0.437400
     46 H233        14.8150     0.0630     0.4070 hn         1 D2A       0.466800
     47 H263        -2.6160     0.8310    -0.5150 hn         1 D2A       0.466467
@<TRIPOS>BOND
     1     1     2 ar
     2     1     6 ar
     3     1    28 1
     4     2     3 ar
     5     2    29 1
     6     3     4 ar
     7     3     7 1
     8     4     5 ar
     9     4    30 1
    10     5     6 ar
    11     5    31 1
    12     6    25 1
    13     7     8 ar
    14     7    12 ar
    15     8     9 ar
    16     8    32 1
    17     9    10 ar
    18     9    33 1
    19    10    11 ar
    20    10    13 1
    21    11    12 ar
    22    11    34 1
    23    12    35 1
    24    13    14 2
    25    13    17 1
    26    14    15 1
    27    15    16 ar
    28    15    19 ar
    29    16    17 1
    30    16    18 ar
    31    17    36 1
    32    18    21 ar
    33    18    37 1
    34    19    20 ar
    35    19    38 1
    36    20    21 ar
    37    20    39 1
    38    21    22 1
    39    22    23 1
    40    22    24 2
    41    23    40 1
    42    23    41 1
    43    24    42 1
    44    25    26 1
    45    25    27 2
    46    26    43 1
    47    26    44 1
    48    27    45 1
    49    46    23 1
    50    47    26 1
@<TRIPOS>SUBSTRUCTURE
     1 D2A         1 TEMP              0 ****  ****    0 ROOT
