@<TRIPOS>MOLECULE
D2B
   44    45     1     0     0
SMALL
bcc


@<TRIPOS>ATOM
      1 N1          0.0390   -0.3920   -0.0750 n2        1 D2B     -0.310000
      2 C2          1.2780    0.2280   -0.1530 c2        1 D2B      0.189000
      3 N3          1.9840    0.8290    0.8900 n2        1 D2B     -0.239000
      4 C4          1.2940    0.8170    2.0460 c2        1 D2B      0.141000
      5 C5         -0.0070    0.2480    2.2600 c2        1 D2B     -0.288000
      6 C6         -0.6030   -0.3930    1.1370 c2        1 D2B      0.242000
      7 CAB        -0.9010   -4.5460    6.1910 c3        1 D2B     -0.086000
      8 CAC        -3.8960   -1.5940    5.3550 c3        1 D2B     -0.177000
      9 NAD         1.8580    0.3060   -1.4270 nh        1 D2B     -0.324000
     10 NAE        -1.8000   -1.0680    1.2710 nh        1 D2B     -0.355000
     11 CAG         1.6540   -1.7860    7.9330 c2        1 D2B     -0.075000
     12 CAH         1.4950   -0.3410    7.6640 c3        1 D2B     -0.202000
     13 CAI         0.8020   -2.6910    7.4060 c2        1 D2B     -0.240000
     14 CAJ         0.3690    0.0600    6.8260 c1        1 D2B     -0.130000
     15 CAK         0.7560    1.1480    4.1930 c2        1 D2B     -0.062000
     16 CAL        -3.3730   -0.0910    7.2520 c2        1 D2B     -0.213000
     17 OAP         1.7690    1.3710    3.2390 os        1 D2B     -0.099000
     18 CAQ        -1.6680   -0.4570    5.5230 c2        1 D2B      0.023000
     19 CAS        -0.3250    0.4820    3.6560 c2        1 D2B     -0.065000
     20 CAU        -0.3030   -2.2590    6.5760 c2        1 D2B      0.207000
     21 CAV        -0.5230   -0.9010    6.3260 c2        1 D2B     -0.178000
     22 CAY        -3.0030   -0.6800    6.1100 c2        1 D2B     -0.079000
     23 HAB         0.1040   -4.8180    5.7890 h1        1 D2B      0.093333
     24 HABA       -1.7120   -5.0330    5.5910 h1        1 D2B      0.093333
     25 HABB       -0.9900   -4.8220    7.2700 h1        1 D2B      0.093333
     26 HAC        -4.8980   -1.6790    5.8410 hc        1 D2B      0.080000
     27 HACA       -4.0370   -1.2220    4.3090 hc        1 D2B      0.080000
     28 HACB       -3.4330   -2.6130    5.3040 hc        1 D2B      0.080000
     29 HNAD        1.5220   -0.3360   -2.1060 hn        1 D2B      0.220500
     30 HNAA        2.8300    0.5090   -1.4570 hn        1 D2B      0.220500
     31 HNAE       -2.2910   -1.3550    0.4600 hn        1 D2B      0.228500
     32 HNAB       -2.3170   -0.9020    2.1000 hn        1 D2B      0.228500
     33 HAF        -2.4700    0.4450    3.7810 ha        1 D2B      0.121000
     34 HAG         0.9290   -3.7660    7.6030 ha        1 D2B      0.141000
     35 HAH         2.4350    0.0530    7.1730 hc        1 D2B      0.161000
     36 HAI         2.4900   -2.0980    8.5790 ha        1 D2B      0.133000
     37 HAJ         1.3960    0.2200    8.6420 hc        1 D2B      0.161000
     38 HAK         0.9830    1.5330    5.1910 h4        1 D2B      0.230000
     39 HAL        -0.9820    1.7650    8.9770 ha        1 D2B      0.000500
     40 HALA       -0.6640    1.5640    8.4120 ha        1 D2B      0.000500
     41 HALB       -2.7040    0.5810    7.8080 ha        1 D2B      0.117500
     42 HAY        -4.3670   -0.2430    7.6920 ha        1 D2B      0.117500
     43 CAF        -1.5530    0.1420    4.3210 c2        1 D2B     -0.098000
     44 OAO        -1.1600   -3.1550    6.0070 os        1 D2B     -0.183000
@<TRIPOS>BOND
     1    1    2 1
     2    1    6 1
     3    2    3 1
     4    2    9 1
     5    3    4 1
     6    4    5 1
     7    4   17 1
     8    5    6 1
     9    5   19 1
    10    6   10 1
    11    7   23 1
    12    7   24 1
    13    7   25 1
    14    7   44 1
    15    8   22 1
    16    8   26 1
    17    8   27 1
    18    8   28 1
    19    9   29 1
    20    9   30 1
    21   10   31 1
    22   10   32 1
    23   11   12 1
    24   11   13 1
    25   11   36 1
    26   12   14 1
    27   12   35 1
    28   12   37 1
    29   13   20 1
    30   13   34 1
    31   14   21 1
    32   15   17 1
    33   15   19 1
    34   15   38 1
    35   16   22 1
    36   16   41 1
    37   16   42 1
    38   18   21 1
    39   18   22 1
    40   18   43 1
    41   19   43 1
    42   20   21 1
    43   20   44 1
    44   33   43 1
    45   39   40 1
@<TRIPOS>SUBSTRUCTURE
     1 D2B         1 TEMP              0 ****  ****    0 ROOT
