@<TRIPOS>MOLECULE
D2D
   47    48     1     0     0
SMALL
bcc


@<TRIPOS>ATOM
      1 N1          0.4710   -0.0180   -0.4780 nb        1 D2D     -0.832000
      2 C2          1.8490    0.0200   -0.3010 ca        1 D2D      0.920900
      3 N3          2.5370    0.0390    0.9150 nb        1 D2D     -0.761000
      4 C4          1.7050   -0.0070    1.9710 ca        1 D2D      0.646600
      5 C5          0.2690   -0.0430    1.9350 ca        1 D2D     -0.433400
      6 C6         -0.3210   -0.0500    0.6390 ca        1 D2D      0.757200
      7 CAA         0.4550   -1.1100    7.4270 c2        1 D2D     -0.234000
      8 CAB        -4.4660    2.3780    7.6330 c3        1 D2D      0.171600
      9 NAC         2.6280   -0.0280   -1.4570 nh        1 D2D     -0.932500
     10 NAD        -1.7000   -0.0330    0.4940 nh        1 D2D     -0.939500
     11 CAF        -4.0500   -0.1110    7.9690 ce        1 D2D     -0.157100
     12 CAG        -4.2100   -1.2440    7.2930 c1        1 D2D     -0.023800
     13 CAH        -4.1260    1.0470    7.0600 ce        1 D2D     -0.133200
     14 CAI        -4.1520   -1.5920    6.0200 c2        1 D2D     -0.188300
     15 CAJ         0.9780   -0.0640    4.0850 cc        1 D2D     -0.032900
     16 CAL        -1.2370   -1.6360    5.6790 c3        1 D2D     -0.022000
     17 OAP         2.1450   -0.0210    3.3000 os        1 D2D     -0.303400
     18 CAQ        -2.0360   -0.7040    4.8350 c2        1 D2D     -0.083400
     19 CAS        -0.1690   -0.0720    3.3180 cd        1 D2D     -0.046200
     20 CAU        -3.7430    0.8370    5.7770 c2        1 D2D     -0.141200
     21 CAV        -3.4870   -0.5290    5.1690 c3        1 D2D      0.029900
     22 HAA        -1.5680   -0.4570    7.4960 ha        1 D2D      0.131000
     23 HAAA        0.7460   -0.6560    8.3840 ha        1 D2D      0.114000
     24 HAAB        1.2550   -1.6580    6.9110 ha        1 D2D      0.114000
     25 HAB        -3.9980    2.4840    8.6510 h1        1 D2D      0.058700
     26 HABA       -3.1280    3.4220    6.7020 ho        1 D2D      0.401000
     27 HABB       -5.5840    2.4780    7.7290 h1        1 D2D      0.058700
     28 HNAC        3.5880    0.2090   -1.3690 hn        1 D2D      0.434800
     29 HNAA        2.1830    0.1890   -2.3170 hn        1 D2D      0.434800
     30 HNAD       -2.2140   -0.3910    1.2650 hn        1 D2D      0.424800
     31 HNAB       -2.0770   -0.2050   -0.4090 hn        1 D2D      0.424800
     32 HAE        -2.1960    0.6150    3.1830 ha        1 D2D      0.130000
     33 HAF        -3.7480    0.0170    9.0130 ha        1 D2D      0.163000
     34 HAG        -4.6380   -2.4420    5.5360 ha        1 D2D      0.155000
     35 HAH        -3.5900    1.6810    5.0860 ha        1 D2D      0.146000
     36 HAI        -4.0780   -0.5570    4.2010 hc        1 D2D      0.082700
     37 HAJ         1.1770   -0.0730    5.1560 h4        1 D2D      0.204000
     38 C19        -1.7270    0.7380   10.5650 c3        1 D2D     -0.113800
     39 HAK        -2.3450    1.5870   10.1990 hc        1 D2D      0.028700
     40 HAL        -1.8710   -2.5320    5.9390 hc        1 D2D      0.065200
     41 HALA       -0.3540   -2.0130    5.0910 hc        1 D2D      0.065200
     42 H20        -2.3810   -0.0010   11.0790 hc        1 D2D      0.028700
     43 H21        -1.2200    0.2480    9.7040 hc        1 D2D      0.028700
     44 H22        -0.9640    1.1160   11.2790 hc        1 D2D      0.028700
     45 CAE        -1.5310   -0.0440    3.7740 cf        1 D2D     -0.118000
     46 OAO        -4.0860    3.4640    6.8110 oh        1 D2D     -0.593800
     47 CAK        -0.7820   -1.0080    6.9480 c2        1 D2D     -0.158200
@<TRIPOS>BOND
     1    1    2 ar  
     2    1    6 ar  
     3    2    3 ar  
     4    2    9 1   
     5    3    4 ar  
     6    4    5 ar  
     7    4   17 1   
     8    5    6 ar  
     9    5   19 1   
    10    6   10 1   
    11    7   23 1   
    12    7   24 1   
    13    7   47 2   
    14    8   13 1   
    15    8   25 1   
    16    8   27 1   
    17    8   46 1   
    18    9   28 1   
    19    9   29 1   
    20   10   30 1   
    21   10   31 1   
    22   11   12 2   
    23   11   13 1   
    24   11   33 1   
    25   12   14 2   
    26   13   20 2   
    27   14   21 1   
    28   14   34 1   
    29   15   17 1   
    30   15   19 2   
    31   15   37 1   
    32   16   18 1   
    33   16   40 1   
    34   16   41 1   
    35   16   47 1   
    36   18   21 1   
    37   18   45 2   
    38   19   45 1   
    39   20   21 1   
    40   20   35 1   
    41   21   36 1   
    42   22   47 1   
    43   26   46 1   
    44   32   45 1   
    45   38   39 1   
    46   38   42 1   
    47   38   43 1   
    48   38   44 1   
@<TRIPOS>SUBSTRUCTURE
     1 D2D         1 TEMP              0 ****  ****    0 ROOT
