@<TRIPOS>MOLECULE
D2E
   42    43     1     0     0
SMALL
bcc


@<TRIPOS>ATOM
      1 N1          0.2140    0.4390   -0.3170 n2        1 D2E     -0.308000
      2 C2          1.5900    0.4740   -0.3260 c2        1 D2E      0.201000
      3 N3          2.4370    0.4080    0.8030 n2        1 D2E     -0.215000
      4 C4          1.7540    0.2210    1.9280 c2        1 D2E      0.115000
      5 C5          0.3320    0.0910    2.0800 c2        1 D2E     -0.317000
      6 C6         -0.4260    0.2340    0.8900 c2        1 D2E      0.240000
      7 CAA        -7.5540    2.8700    5.7390 c3        1 D2E     -0.178000
      8 NAB         2.2200    0.5530   -1.5650 nh        1 D2E     -0.332000
      9 NAC        -1.8060    0.1330    0.8950 nh        1 D2E     -0.337000
     10 CAE        -5.2940    2.0060    6.1930 c1        1 D2E     -0.076000
     11 CAF        -6.1030    3.0060    5.9870 c2        1 D2E     -0.112000
     12 CAG        -4.4690    1.0190    6.4130 c2        1 D2E     -0.197000
     13 CAH        -3.2410   -1.7680    6.5670 c2        1 D2E     -0.171000
     14 CAI         1.4210   -0.0540    4.1470 c1        1 D2E      0.082000
     15 CAJ        -0.6370   -0.7050    7.9250 c3        1 D2E     -0.149000
     16 CAK         0.3150    0.1270    8.7490 c3        1 D2E     -0.210000
     17 OAO         2.3600    0.1300    3.2290 os        1 D2E     -0.067000
     18 CAP        -1.3630   -0.5500    5.5230 c2        1 D2E     -0.102000
     19 CAR         0.0780   -0.1250    3.5010 c2        1 D2E     -0.190000
     20 CAT        -3.7230    0.3160    5.3540 c2        1 D2E      0.312000
     21 CAU        -2.7860   -0.7300    5.8560 c2        1 D2E     -0.126000
     22 CAX        -0.4020   -0.5330    6.4730 c2        1 D2E     -0.076000
     23 HAA        -8.1250    3.4340    6.5190 hc        1 D2E      0.090333
     24 HAAA       -7.8850    1.8030    5.7580 hc        1 D2E      0.090333
     25 HAAB       -7.8050    3.3010    4.7370 hc        1 D2E      0.090333
     26 HNAB        1.6680    0.8100   -2.3480 hn        1 D2E      0.232500
     27 HNAA        3.1810    0.8000   -1.5780 hn        1 D2E      0.232500
     28 HNAC       -2.2950    0.3600    0.0600 hn        1 D2E      0.228000
     29 HNAD       -2.2660    0.3490    1.7490 hn        1 D2E      0.228000
     30 HAD        -2.0040   -0.5140    3.4800 ha        1 D2E      0.146000
     31 HAE        -4.3050   -1.8910    6.8120 ha        1 D2E      0.125000
     32 HAF        -2.5740   -2.5610    6.9330 ha        1 D2E      0.125000
     33 HAG        -4.2810    0.6630    7.4430 ha        1 D2E      0.152000
     34 HAH        -5.7100    4.0400    5.9900 ha        1 D2E      0.151000
     35 HAI         0.6590   -0.3860    6.1850 ha        1 D2E      0.179000
     36 HAJ        -1.6980   -0.4460    8.1930 hc        1 D2E      0.093000
     37 HAJA       -0.4950   -1.7940    8.1750 hc        1 D2E      0.093000
     38 HAK         1.3750   -0.1470    8.5280 hc        1 D2E      0.079333
     39 HAKA        0.1240   -0.0400    9.8370 hc        1 D2E      0.079333
     40 HAX         0.1810    1.2130    8.5280 hc        1 D2E      0.079333
     41 CAD        -1.0960   -0.3920    4.1050 c2        1 D2E      0.023000
     42 OAN        -3.8580    0.5590    4.1480 o         1 D2E     -0.304000
@<TRIPOS>BOND
     1    1    2 1
     2    1    6 1
     3    2    3 1
     4    2    8 1
     5    3    4 1
     6    4    5 1
     7    4   17 1
     8    5    6 1
     9    5   19 1
    10    6    9 1
    11    7   11 1
    12    7   23 1
    13    7   24 1
    14    7   25 1
    15    8   26 1
    16    8   27 1
    17    9   28 1
    18    9   29 1
    19   10   11 1
    20   10   12 1
    21   11   34 1
    22   12   20 1
    23   12   33 1
    24   13   21 1
    25   13   31 1
    26   13   32 1
    27   14   17 1
    28   14   19 1
    29   15   16 1
    30   15   22 1
    31   15   36 1
    32   15   37 1
    33   16   38 1
    34   16   39 1
    35   16   40 1
    36   18   21 1
    37   18   22 1
    38   18   41 1
    39   19   41 1
    40   20   21 1
    41   20   42 1
    42   22   35 1
    43   30   41 1
@<TRIPOS>SUBSTRUCTURE
     1 D2E         1 TEMP              0 ****  ****    0 ROOT
