@<TRIPOS>MOLECULE
D2F
   47    47     1     0     0
SMALL
bcc


@<TRIPOS>ATOM
      1 N1          0.1110    0.0130   -0.1150 n2        1 D2F     -0.312000
      2 C2          1.4790    0.2500   -0.0530 c2        1 D2F      0.204000
      3 N3          2.2280    0.5430    1.0900 n2        1 D2F     -0.240000
      4 C4          1.4750    0.5490    2.2040 c2        1 D2F      0.151000
      5 C5          0.0600    0.3170    2.2870 c2        1 D2F     -0.298000
      6 C6         -0.6020    0.0460    1.0540 c2        1 D2F      0.250000
      7 CAA         0.5730   -0.3460    9.6980 c1        1 D2F     -0.063000
      8 CAB        -2.7430    2.8570    6.0950 c3        1 D2F     -0.060000
      9 NAC         2.1880    0.1250   -1.2480 nh        1 D2F     -0.330000
     10 NAD        -1.9690   -0.1380    1.0180 nh        1 D2F     -0.349000
     11 CAF        -4.3280    0.0810    8.6130 c2        1 D2F     -0.543000
     12 CAG        -4.2980    0.2860    9.9250 c1        1 D2F      0.384000
     13 CAH        -3.8960    1.0710    7.6980 c1        1 D2F     -0.030000
     14 CAI        -4.0420   -1.5580    5.7250 c2        1 D2F     -0.221000
     15 CAJ         0.8890    0.7110    4.3560 c2        1 D2F     -0.086000
     16 CAK         0.2080   -0.9950    8.4550 c3        1 D2F     -0.254000
     17 CAM        -0.9970   -1.0320    6.2600 c3        1 D2F     -0.129000
     18 OAQ         1.9890    0.7940    3.4820 os        1 D2F     -0.090000
     19 CAR        -1.9590   -0.3210    5.3710 c2        1 D2F     -0.071000
     20 CAT        -0.2860    0.4310    3.6920 c2        1 D2F     -0.052000
     21 CAV        -4.0660    0.8560    6.2490 c3        1 D2F      0.018000
     22 CAW        -3.3720   -0.3990    5.7710 c2        1 D2F     -0.081000
     23 HAA         2.5100    0.7050    9.2510 ha        1 D2F      0.011000
     24 HAAA        2.1510    1.0190    8.7640 ha        1 D2F      0.011000
     25 HAAB        0.0600    0.6030    9.9270 ha        1 D2F      0.038000
     26 HAB        -1.8470    2.2870    6.4420 h1        1 D2F      0.078333
     27 HABA       -2.4700    3.5780    5.2840 h1        1 D2F      0.078333
     28 HABB       -3.2170    3.3840    6.9580 h1        1 D2F      0.078333
     29 HNAC        3.1080    0.4960   -1.2710 hn        1 D2F      0.229500
     30 HNAA        1.6670    0.1520   -2.0930 hn        1 D2F      0.229500
     31 HNAD       -2.4170   -0.3470    1.8770 hn        1 D2F      0.230000
     32 HNAB       -2.3930   -0.4610    0.1820 hn        1 D2F      0.230000
     33 HAE        -2.3990    0.8440    3.6590 ha        1 D2F      0.151000
     34 HAF        -4.7020   -0.9050    8.2460 ha        1 D2F      0.179000
     35 HAG        -3.5680   -2.4940    5.4010 ha        1 D2F      0.119500
     36 HAH        -5.1800    0.7670    6.0260 h1        1 D2F      0.129000
     37 HAI        -5.1030   -1.6390    5.9960 ha        1 D2F      0.119500
     38 HAJ         1.1550    0.8980    5.3930 h4        1 D2F      0.194000
     39 HAK        -1.6340    0.0700    8.0160 hc        1 D2F      0.085000
     40 HAKA       -0.3000   -1.9580    8.7630 hc        1 D2F      0.140500
     41 HAL        -0.1650    0.7330    7.2060 hc        1 D2F      0.085000
     42 HALA        1.1560   -1.3070    7.9300 hc        1 D2F      0.140500
     43 HAM        -1.4390   -2.0200    6.5640 hc        1 D2F      0.092000
     44 HAMA       -0.0460   -1.2480    5.7020 hc        1 D2F      0.092000
     45 CAE        -1.6120    0.3190    4.2370 c2        1 D2F     -0.089000
     46 OAP        -3.6800    1.9890    5.4730 os        1 D2F     -0.269000
     47 CAL        -0.6780   -0.2210    7.5010 c3        1 D2F     -0.182000
@<TRIPOS>BOND
     1    1    2 1   
     2    1    6 1   
     3    2    3 1   
     4    2    9 1   
     5    3    4 1   
     6    4    5 1   
     7    4   18 1   
     8    5    6 1   
     9    5   20 1   
    10    6   10 1   
    11    7   16 1   
    12    7   25 1   
    13    8   26 1   
    14    8   27 1   
    15    8   28 1   
    16    8   46 1   
    17    9   29 1   
    18    9   30 1   
    19   10   31 1   
    20   10   32 1   
    21   11   12 1   
    22   11   13 1   
    23   11   34 1   
    24   13   21 1   
    25   14   22 1   
    26   14   35 1   
    27   14   37 1   
    28   15   18 1   
    29   15   20 1   
    30   15   38 1   
    31   16   40 1   
    32   16   42 1   
    33   16   47 1   
    34   17   19 1   
    35   17   43 1   
    36   17   44 1   
    37   17   47 1   
    38   19   22 1   
    39   19   45 1   
    40   20   45 1   
    41   21   22 1   
    42   21   36 1   
    43   21   46 1   
    44   23   24 1   
    45   33   45 1   
    46   39   47 1   
    47   41   47 1   
@<TRIPOS>SUBSTRUCTURE
     1 D2F         1 TEMP              0 ****  ****    0 ROOT
