@<TRIPOS>MOLECULE
D2G
   27    28     1     0     0
SMALL
bcc


@<TRIPOS>ATOM
      1 C_1        -0.0980    0.0130   -0.1250 ca        1 D2G     -0.304800
      2 C_2         1.1750   -0.5800   -0.1890 ca        1 D2G     -0.054000
      3 C_3         2.0210   -0.4820    0.9120 ca        1 D2G     -0.245300
      4 C_4         1.5670    0.2100    2.0530 ca        1 D2G      0.437200
      5 N_1         0.3510    0.7850    2.1340 nb        1 D2G     -0.649000
      6 C_5        -0.4600    0.6870    1.0690 ca        1 D2G      0.444200
      7 C_6        -1.0320   -0.0570   -1.2140 cc        1 D2G      0.411200
      8 C_7        -2.3900    0.2390   -1.3160 cd        1 D2G     -0.273300
      9 C_8        -2.7780   -0.0220   -2.6740 cd        1 D2G     -0.122300
     10 C_9        -1.6450   -0.4670   -3.3350 cc        1 D2G      0.074000
     11 O_1        -0.5470   -0.4980   -2.4520 os        1 D2G     -0.379800
     12 C10        -1.3770   -0.9650   -4.6860 c3        1 D2G      0.116500
     13 N_2        -0.4560   -0.0250   -5.4250 n4        1 D2G     -0.768000
     14 C11        -0.1330   -0.5130   -6.7820 c3        1 D2G      0.076100
     15 H_2         1.4890   -1.1190   -1.0950 ha        1 D2G      0.143000
     16 H_3         3.0220   -0.9360    0.9010 ha        1 D2G      0.162000
     17 H_4         2.2070    0.3100    2.9510 h4        1 D2G      0.045100
     18 H_5        -1.4510    1.1690    1.1690 h4        1 D2G      0.034100
     19 H_7        -3.0460    0.5910   -0.5220 ha        1 D2G      0.192000
     20 H_8        -3.7810    0.1010   -3.0830 ha        1 D2G      0.181000
     21 H101       -2.3380   -1.0520   -5.2690 hx        1 D2G      0.118700
     22 H102       -0.8650   -1.9720   -4.6500 hx        1 D2G      0.118700
     23 H1         -0.9000    0.8990   -5.4820 hn        1 D2G      0.457300
     24 H111       -1.0790   -0.6190   -7.3790 hx        1 D2G      0.109033
     25 H112        0.5500    0.2210   -7.2890 hx        1 D2G      0.109033
     26 H113        0.3770   -1.5120   -6.7120 hx        1 D2G      0.109033
     27 H_22        0.4060    0.0790   -4.8730 hn        1 D2G      0.457300
@<TRIPOS>BOND
     1    1    2 ar  
     2    1    6 ar  
     3    1    7 1   
     4    2    3 ar  
     5    2   15 1   
     6    3    4 ar  
     7    3   16 1   
     8    4    5 ar  
     9    4   17 1   
    10    5    6 ar  
    11    6   18 1   
    12    7    8 2   
    13    7   11 1   
    14    8    9 1   
    15    8   19 1   
    16    9   10 2   
    17    9   20 1   
    18   10   11 1   
    19   10   12 1   
    20   12   13 1   
    21   12   21 1   
    22   12   22 1   
    23   13   14 1   
    24   13   23 1   
    25   13   27 1   
    26   14   24 1   
    27   14   25 1   
    28   14   26 1   
@<TRIPOS>SUBSTRUCTURE
     1 D2G         1 TEMP              0 ****  ****    0 ROOT
