@<TRIPOS>MOLECULE
D2H
   47    47     1     0     0
SMALL
bcc


@<TRIPOS>ATOM
      1 N1         -0.1700    0.2000    0.0850 n2        1 D2H     -0.310000
      2 C2          1.1420   -0.2600    0.0820 c2        1 D2H      0.206000
      3 N3          1.9190   -0.5930    1.1960 n2        1 D2H     -0.238000
      4 C4          1.2280   -0.4920    2.3450 c2        1 D2H      0.152000
      5 C5         -0.1430   -0.0890    2.4850 c2        1 D2H     -0.298000
      6 C6         -0.8230    0.2690    1.2870 c2        1 D2H      0.245000
      7 CAB        -4.9950    2.3660    2.9240 c1        1 D2H     -0.026000
      8 CAC        -0.5240    1.2060    7.4590 c3        1 D2H     -0.210000
      9 NAD         1.7350   -0.4400   -1.1650 nh        1 D2H     -0.332000
     10 NAE        -2.1530    0.6510    1.3280 nh        1 D2H     -0.346000
     11 CAG        -5.6060   -0.7990    6.4820 c2        1 D2H     -0.538000
     12 CAH        -4.9010   -0.1200    7.5020 c1        1 D2H     -0.040000
     13 CAI        -6.5960   -1.6380    6.7650 c1        1 D2H      0.376000
     14 CAJ        -3.7990    0.7900    7.2570 c3        1 D2H     -0.169000
     15 CAK         0.7260   -0.5290    4.5280 c2        1 D2H     -0.081000
     16 CAL        -1.4010    3.2660    6.3700 c3        1 D2H     -0.151000
     17 OAP         1.7690   -0.7610    3.6080 os        1 D2H     -0.090000
     18 CAQ        -2.0160    0.9990    5.4640 c2        1 D2H     -0.051000
     19 CAS        -0.4360   -0.1350    3.9040 c2        1 D2H     -0.055000
     20 CAU        -4.3630    1.6410    5.0230 c2        1 D2H     -0.053000
     21 CAV        -3.4200    1.1720    5.8630 c2        1 D2H     -0.099000
     22 CAY        -0.9640    1.8240    6.1440 c3        1 D2H     -0.075000
     23 HAA        -2.2460    3.5600    4.3970 hc        1 D2H      0.075333
     24 HAAA       -0.5180    4.0800    4.5620 hc        1 D2H      0.075333
     25 HAAB       -1.8380    5.0880    5.2870 hc        1 D2H      0.075333
     26 HAB        -5.6290    0.2160    2.1570 ha        1 D2H      0.005500
     27 HABA       -4.5360    2.6210    1.9310 ha        1 D2H      0.027000
     28 HABB       -5.0310    0.2330    1.8360 ha        1 D2H      0.005500
     29 HAC        -0.4080    0.1000    7.3570 hc        1 D2H      0.077000
     30 HACA       -1.2630    1.4180    8.2700 hc        1 D2H      0.077000
     31 HACB        0.4580    1.6390    7.7680 hc        1 D2H      0.077000
     32 HNAD        2.7210   -0.5530   -1.1940 hn        1 D2H      0.231500
     33 HNAA        1.2990   -0.0180   -1.9500 hn        1 D2H      0.231500
     34 HNAE       -2.4890    0.9790    2.2050 hn        1 D2H      0.225500
     35 HNAB       -2.5570    1.0490    0.5130 hn        1 D2H      0.225500
     36 HAF        -2.5540   -0.4340    3.9950 ha        1 D2H      0.135000
     37 HAG        -5.3430   -0.6520    5.4070 ha        1 D2H      0.177000
     38 HAH        -2.9140    0.2970    7.7680 hc        1 D2H      0.153000
     39 HAI        -5.4250    1.8050    5.2600 h4        1 D2H      0.174000
     40 HAJ        -4.0150    1.7290    7.8500 hc        1 D2H      0.153000
     41 HAK         1.0180   -0.7120    5.5590 h4        1 D2H      0.196000
     42 HAL        -2.3890    3.2780    6.9030 hc        1 D2H      0.081000
     43 HALA       -0.6520    3.7620    7.0440 hc        1 D2H      0.081000
     44 HAY        -0.0620    1.8410    5.4610 hc        1 D2H      0.106000
     45 CAF        -1.7310    0.1340    4.4710 c2        1 D2H     -0.105000
     46 CAA        -1.5050    4.0410    5.0830 c3        1 D2H     -0.213000
     47 OAO        -3.9940    1.9870    3.7040 os        1 D2H     -0.167000
@<TRIPOS>BOND
     1    1    2 1
     2    1    6 1
     3    2    3 1
     4    2    9 1
     5    3    4 1
     6    4    5 1
     7    4   17 1
     8    5    6 1
     9    5   19 1
    10    6   10 1
    11    7   27 1
    12    7   47 1
    13    8   22 1
    14    8   29 1
    15    8   30 1
    16    8   31 1
    17    9   32 1
    18    9   33 1
    19   10   34 1
    20   10   35 1
    21   11   12 1
    22   11   13 1
    23   11   37 1
    24   12   14 1
    25   14   21 1
    26   14   38 1
    27   14   40 1
    28   15   17 1
    29   15   19 1
    30   15   41 1
    31   16   22 1
    32   16   42 1
    33   16   43 1
    34   16   46 1
    35   18   21 1
    36   18   22 1
    37   18   45 1
    38   19   45 1
    39   20   21 1
    40   20   39 1
    41   20   47 1
    42   22   44 1
    43   23   46 1
    44   24   46 1
    45   25   46 1
    46   26   28 1
    47   36   45 1
@<TRIPOS>SUBSTRUCTURE
     1 D2H         1 TEMP              0 ****  ****    0 ROOT
