@<TRIPOS>MOLECULE
D2J
   57    59     1     0     0
SMALL
bcc


@<TRIPOS>ATOM
      1 N1           0.0000     0.0000     0.0000 nb         1 D2J      -0.656000
      2 C2           1.3290     0.0000     0.0000 ca         1 D2J       0.720900
      3 N3           2.0460     0.0000     1.1080 nb         1 D2J      -0.603000
      4 C4           1.4460    -0.0000     2.3070 ca         1 D2J       0.616300
      5 C5           0.0290     0.0010     2.3540 ca         1 D2J      -0.331600
      6 C6          -0.6880     0.0010     1.1330 ca         1 D2J       0.573200
      7 NAC          1.9910     0.0000    -1.2130 nv         1 D2J      -0.642500
      8 NAD         -2.0660     0.0010     1.1220 nv         1 D2J      -0.665500
      9 OAE         -9.4100    -8.3120     6.1180 o          1 D2J      -0.904800
     10 OAF         -9.1330   -10.3430     6.9420 o          1 D2J      -0.904800
     11 CAG         -1.4110    -4.0180     7.2260 ca         1 D2J      -0.168000
     12 CAH         -0.1490    -3.5090     7.4610 ca         1 D2J      -0.159000
     13 CAI          1.5470    -0.0020     4.6120 ca         1 D2J       0.456200
     14 CAJ         -2.0740    -1.9250     6.2520 ca         1 D2J      -0.123000
     15 CAK         -5.5610    -6.9060     6.8900 c3         1 D2J      -0.032400
     16 CAL         -5.3030    -5.4620     6.4550 c3         1 D2J      -0.035400
     17 CAM         -7.0020    -7.2910     6.5490 c3         1 D2J      -0.014400
     18 CAN         -3.8610    -5.0780     6.7940 c3         1 D2J       0.196400
     19 CAO         -7.2610    -8.7350     6.9850 c3         1 D2J      -0.134400
     20 NAQ          2.1460    -0.0020     3.4420 nb         1 D2J      -0.574000
     21 CAV         -8.6800    -9.1140     6.6490 c          1 D2J       0.980600
     22 CAY         -0.6150     0.0010     3.5970 ca         1 D2J       0.006700
     23 CAZ         -2.3760    -3.2270     6.6210 ca         1 D2J       0.134100
     24 CBA          0.1620    -0.0000     4.7250 ca         1 D2J      -0.220600
     25 CBB         -0.8120    -1.4160     6.4870 ca         1 D2J      -0.092300
     26 CBC          0.1530    -2.2060     7.0920 ca         1 D2J       0.106100
     27 HAA          2.4930    -3.4500     7.3290 h1         1 D2J      -0.003300
     28 HAAA         3.2810    -2.0550     8.0800 h1         1 D2J      -0.003300
     29 HAAB         1.9610    -2.8830     8.9180 h1         1 D2J      -0.003300
     30 HAB         -2.5010    -0.9580     3.3620 hc         1 D2J       0.029033
     31 HABA        -2.5190     0.7850     3.0590 hc         1 D2J       0.029033
     32 HABB        -2.4160     0.1760     4.7170 hc         1 D2J       0.029033
     33 HNAC         2.2350     0.8670    -1.6500 hn         1 D2J       0.277300
     34 HNAA         2.2260    -0.8660    -1.6560 hn         1 D2J       0.277300
     35 HNAD        -2.5650    -0.8660     1.1070 hn         1 D2J       0.289800
     36 HNAB        -2.5650     0.8670     1.0630 hn         1 D2J       0.289800
     37 HAG         -1.6480    -5.0360     7.5140 ha         1 D2J       0.127000
     38 HAH          0.6050    -4.1270     7.9340 ha         1 D2J       0.117000
     39 HAI          2.1490     0.0000     5.5130 h4         1 D2J      -0.008900
     40 HAJ         -2.8280    -1.3080     5.7790 ha         1 D2J       0.126000
     41 HAK         -4.8780    -7.5680     6.3710 hc         1 D2J       0.004700
     42 HAKA        -5.4070    -6.9950     7.9590 hc         1 D2J       0.004700
     43 HAL         -5.4580    -5.3740     5.3870 hc         1 D2J       0.023700
     44 HALA        -5.9850    -4.8010     6.9750 hc         1 D2J       0.023700
     45 HAM         -7.1560    -7.2030     5.4810 hc         1 D2J       0.022700
     46 HAMA        -7.6850    -6.6300     7.0690 hc         1 D2J       0.022700
     47 HAN         -3.7050    -5.1670     7.8630 h1         1 D2J      -0.000800
     48 HANA        -3.1790    -5.7380     6.2730 h1         1 D2J      -0.000800
     49 HAO         -6.5780    -9.3970     6.4650 hc         1 D2J       0.003700
     50 HAOA        -7.1060    -8.8240     8.0530 hc         1 D2J       0.003700
     51 HAP          0.1970     0.4310     6.8100 hc         1 D2J       0.029700
     52 HAPA        -1.3950     0.5860     6.0540 hc         1 D2J       0.029700
     53 CAB         -2.1180     0.0010     3.6900 c3         1 D2J       0.015200
     54 CAP         -0.4850    -0.0010     6.0870 c3         1 D2J       0.098200
     55 CAA          2.3400    -2.5760     7.9500 c3         1 D2J       0.242700
     56 OAU         -3.6200    -3.7290     6.3890 os         1 D2J      -0.306900
     57 OAT          1.3950    -1.7050     7.3240 os         1 D2J      -0.314900
@<TRIPOS>BOND
     1     1     2 ar  
     2     1     6 ar  
     3     2     3 ar  
     4     2     7 1   
     5     3     4 ar  
     6     4     5 ar  
     7     4    20 ar  
     8     5     6 ar  
     9     5    22 ar  
    10     6     8 1   
    11     7    33 1   
    12     7    34 1   
    13     8    35 1   
    14     8    36 1   
    15     9    21 1   
    16    10    21 1   
    17    11    12 ar  
    18    11    23 ar  
    19    11    37 1   
    20    12    26 ar  
    21    12    38 1   
    22    13    20 ar  
    23    13    24 ar  
    24    13    39 1   
    25    14    23 ar  
    26    14    25 ar  
    27    14    40 1   
    28    15    16 1   
    29    15    17 1   
    30    15    41 1   
    31    15    42 1   
    32    16    18 1   
    33    16    43 1   
    34    16    44 1   
    35    17    19 1   
    36    17    45 1   
    37    17    46 1   
    38    18    47 1   
    39    18    48 1   
    40    18    56 1   
    41    19    21 1   
    42    19    49 1   
    43    19    50 1   
    44    22    24 ar  
    45    22    53 1   
    46    23    56 1   
    47    24    54 1   
    48    25    26 ar  
    49    25    54 1   
    50    26    57 1   
    51    27    55 1   
    52    28    55 1   
    53    29    55 1   
    54    30    53 1   
    55    31    53 1   
    56    32    53 1   
    57    51    54 1   
    58    52    54 1   
    59    55    57 1   
@<TRIPOS>SUBSTRUCTURE
     1 D2J         1 TEMP              0 ****  ****    0 ROOT
