@<TRIPOS>MOLECULE
D2K
   58    60     1     0     0
SMALL
bcc


@<TRIPOS>ATOM
      1 N1           0.0000     0.0000     0.0000 nb         1 D2K      -0.652000
      2 C2           1.3300     0.0000     0.0000 ca         1 D2K       0.723900
      3 N3           2.0460     0.0000     1.1090 nb         1 D2K      -0.600000
      4 C4           1.4450     0.0020     2.3070 ca         1 D2K       0.618300
      5 C5           0.0290     0.0030     2.3540 ca         1 D2K      -0.331600
      6 C6          -0.6890     0.0020     1.1330 ca         1 D2K       0.570200
      7 CAA         -9.1450   -10.2400     6.9120 c3         1 D2K      -0.003100
      8 NAD          1.9910    -0.0020    -1.2140 nv         1 D2K      -0.640500
      9 NAE         -2.0660     0.0020     1.1230 nv         1 D2K      -0.664500
     10 OAF         -7.7110    -6.4770     6.0290 o          1 D2K      -0.584000
     11 CAG         -1.4130    -4.0120     7.2300 ca         1 D2K      -0.170000
     12 CAH         -0.1490    -3.5020     7.4640 ca         1 D2K      -0.160000
     13 CAI          1.5460     0.0030     4.6120 ca         1 D2K       0.454200
     14 CAJ         -2.0750    -1.9200     6.2530 ca         1 D2K      -0.115000
     15 CAK         -8.8110    -8.8040     6.5040 c3         1 D2K       0.227400
     16 CAL         -5.3020    -5.4570     6.4600 c3         1 D2K      -0.028400
     17 CAM         -3.8620    -5.0720     6.8000 c3         1 D2K       0.202400
     18 CAN         -5.5610    -6.9000     6.8960 c3         1 D2K      -0.065400
     19 NAP          2.1450     0.0030     3.4430 nb         1 D2K      -0.567000
     20 OAS          1.3940    -1.6980     7.3260 os         1 D2K      -0.309900
     21 OAT         -7.4340    -8.5090     6.8550 os         1 D2K      -0.416900
     22 CAV         -6.9810    -7.2800     6.5620 c          1 D2K       0.693100
     23 CAX         -2.3780    -3.2210     6.6240 ca         1 D2K       0.119100
     24 CAZ         -0.6150     0.0040     3.5960 ca         1 D2K       0.004700
     25 CBA          0.1610     0.0030     4.7250 ca         1 D2K      -0.224600
     26 CBB         -0.8130    -1.4100     6.4880 ca         1 D2K      -0.086300
     27 CBC          0.1520    -2.2000     7.0950 ca         1 D2K       0.119100
     28 HAA         -8.5880   -10.9310     6.2910 hc         1 D2K       0.010700
     29 HAAA        -8.8770   -10.3920     7.9510 hc         1 D2K       0.010700
     30 HAAB       -10.2060   -10.4140     6.7840 hc         1 D2K       0.010700
     31 HAB          2.4930    -3.4420     7.3330 h1         1 D2K      -0.001633
     32 HABA         1.9620    -2.8740     8.9220 h1         1 D2K      -0.001633
     33 HABB         3.2800    -2.0460     8.0820 h1         1 D2K      -0.001633
     34 HAC         -2.5210     0.7880     3.0590 hc         1 D2K       0.027033
     35 HACA        -2.5030    -0.9550     3.3630 hc         1 D2K       0.027033
     36 HACB        -2.4180     0.1800     4.7170 hc         1 D2K       0.027033
     37 HNAD         2.2740     0.8630    -1.6310 hn         1 D2K       0.279800
     38 HNAA         2.1960    -0.8680    -1.6700 hn         1 D2K       0.279800
     39 HNAE        -2.5650     0.8670     1.0620 hn         1 D2K       0.287800
     40 HNAB        -2.5650    -0.8650     1.1080 hn         1 D2K       0.287800
     41 HAG         -1.6490    -5.0290     7.5190 ha         1 D2K       0.118000
     42 HAH          0.6050    -4.1200     7.9380 ha         1 D2K       0.120000
     43 HAI          2.1480     0.0040     5.5130 h4         1 D2K      -0.008900
     44 HAJ         -2.8290    -1.3020     5.7800 ha         1 D2K       0.127000
     45 HAK         -9.4710    -8.1190     7.0230 h1         1 D2K       0.009700
     46 HAKA        -8.9430    -8.6930     5.4350 h1         1 D2K       0.009700
     47 HAL         -5.9850    -4.7950     6.9790 hc         1 D2K       0.039700
     48 HALA        -5.4570    -5.3690     5.3910 hc         1 D2K       0.039700
     49 HAM         -3.1790    -5.7330     6.2810 h1         1 D2K      -0.000300
     50 HAMA        -3.7070    -5.1590     7.8690 h1         1 D2K      -0.000300
     51 HAN         -5.4060    -6.9880     7.9650 hc         1 D2K       0.035700
     52 HANA        -4.8780    -7.5620     6.3770 hc         1 D2K       0.035700
     53 HAO          0.1970     0.4360     6.8100 hc         1 D2K       0.032200
     54 HAOA        -1.3950     0.5920     6.0540 hc         1 D2K       0.032200
     55 CAC         -2.1200     0.0040     3.6900 c3         1 D2K       0.017200
     56 CAO         -0.4850     0.0050     6.0870 c3         1 D2K       0.097200
     57 OAU         -3.6200    -3.7230     6.3930 os         1 D2K      -0.303900
     58 CAB          2.3400    -2.5680     7.9540 c3         1 D2K       0.242700
@<TRIPOS>BOND
     1     1     2 ar  
     2     1     6 ar  
     3     2     3 ar  
     4     2     8 1   
     5     3     4 ar  
     6     4     5 ar  
     7     4    19 ar  
     8     5     6 ar  
     9     5    24 ar  
    10     6     9 1   
    11     7    15 1   
    12     7    28 1   
    13     7    29 1   
    14     7    30 1   
    15     8    37 1   
    16     8    38 1   
    17     9    39 1   
    18     9    40 1   
    19    10    22 2   
    20    11    12 ar  
    21    11    23 ar  
    22    11    41 1   
    23    12    27 ar  
    24    12    42 1   
    25    13    19 ar  
    26    13    25 ar  
    27    13    43 1   
    28    14    23 ar  
    29    14    26 ar  
    30    14    44 1   
    31    15    21 1   
    32    15    45 1   
    33    15    46 1   
    34    16    17 1   
    35    16    18 1   
    36    16    47 1   
    37    16    48 1   
    38    17    49 1   
    39    17    50 1   
    40    17    57 1   
    41    18    22 1   
    42    18    51 1   
    43    18    52 1   
    44    20    27 1   
    45    20    58 1   
    46    21    22 1   
    47    23    57 1   
    48    24    25 ar  
    49    24    55 1   
    50    25    56 1   
    51    26    27 ar  
    52    26    56 1   
    53    31    58 1   
    54    32    58 1   
    55    33    58 1   
    56    34    55 1   
    57    35    55 1   
    58    36    55 1   
    59    53    56 1   
    60    54    56 1   
@<TRIPOS>SUBSTRUCTURE
     1 D2K         1 TEMP              0 ****  ****    0 ROOT
