@<TRIPOS>MOLECULE
molecule
   40    41     1     0     0
SMALL
bcc


@<TRIPOS>ATOM
      1 O29          0.0000     0.0000     0.0000 oh         1 D2M      -0.491100
      2 C28          1.3630     0.0000     0.0000 ca         1 D2M       0.005100
      3 C26          2.0580     0.0000     1.2030 ca         1 D2M       0.182600
      4 O32          1.3790     0.0010     2.3810 os         1 D2M      -0.312400
      5 C34          2.1580     0.0020     3.5800 c3         1 D2M       0.126700
      6 C23          3.4440    -0.0000     1.2020 ca         1 D2M      -0.301500
      7 C21          4.1370    -0.0010     0.0010 ca         1 D2M       0.213100
      8 C22          3.4440    -0.0010    -1.2020 ca         1 D2M      -0.301500
      9 C24          2.0580    -0.0070    -1.2030 ca         1 D2M       0.182600
     10 O31          1.3790    -0.0120    -2.3810 os         1 D2M      -0.312400
     11 C33          2.1580    -0.0180    -3.5790 c3         1 D2M       0.126700
     12 O20          5.4970    -0.0020     0.0000 os         1 D2M      -0.213200
     13 C3           6.1350    -0.0020    -1.2010 ca         1 D2M       0.030100
     14 C4           6.4570    -1.2060    -1.8180 ca         1 D2M       0.170600
     15 O10          6.1340    -2.3840    -1.2230 os         1 D2M      -0.306900
     16 C11          6.4960    -3.5810    -1.9140 c3         1 D2M       0.126700
     17 C5           7.1080    -1.2020    -3.0430 ca         1 D2M      -0.258000
     18 C6           7.4360    -0.0040    -3.6500 ca         1 D2M      -0.048000
     19 C1           7.1180     1.1940    -3.0400 ca         1 D2M      -0.258000
     20 C2           6.4630     1.2000    -1.8170 ca         1 D2M       0.170600
     21 O15          6.1450     2.3790    -1.2200 os         1 D2M      -0.306900
     22 C16          6.5120     3.5760    -1.9110 c3         1 D2M       0.126700
     23 HO29        -0.3140     0.8890    -0.0020 ho         1 D2M       0.407000
     24 H34          2.7830     0.8860     3.6040 h1         1 D2M       0.042367
     25 H34A         2.7820    -0.8830     3.6050 h1         1 D2M       0.042367
     26 H34B         1.4990     0.0020     4.4390 h1         1 D2M       0.042367
     27 H23          3.9860    -0.0000     2.1400 ha         1 D2M       0.149500
     28 H22          3.9870    -0.0040    -2.1390 ha         1 D2M       0.149500
     29 H33          1.4990    -0.0040    -4.4390 h1         1 D2M       0.042367
     30 H33A         2.7700    -0.9110    -3.6070 h1         1 D2M       0.042367
     31 H33B         2.7960     0.8580    -3.5990 h1         1 D2M       0.042367
     32 H11          6.0220    -3.5930    -2.8880 h1         1 D2M       0.044533
     33 H11A         6.1680    -4.4420    -1.3430 h1         1 D2M       0.044533
     34 H11B         7.5720    -3.6170    -2.0360 h1         1 D2M       0.044533
     35 H5           7.3590    -2.1400    -3.5240 ha         1 D2M       0.142000
     36 H6           7.9460    -0.0050    -4.6050 ha         1 D2M       0.135000
     37 H1           7.3760     2.1300    -3.5200 ha         1 D2M       0.142000
     38 H16          6.1860     4.4370    -1.3400 h1         1 D2M       0.044533
     39 H16A         7.5880     3.6080    -2.0300 h1         1 D2M       0.044533
     40 H16B         6.0400     3.5900    -2.8860 h1         1 D2M       0.044533
@<TRIPOS>BOND
     1     2     1 1
     2     1    23 1
     3     3     2 ar
     4     2     9 ar
     5     4     3 1
     6     6     3 ar
     7     5     4 1
     8     5    24 1
     9     5    25 1
    10     5    26 1
    11     6     7 ar
    12     6    27 1
    13    12     7 1
    14     7     8 ar
    15     8     9 ar
    16     8    28 1
    17     9    10 1
    18    10    11 1
    19    11    29 1
    20    11    30 1
    21    11    31 1
    22    13    12 1
    23    14    13 ar
    24    13    20 ar
    25    15    14 1
    26    17    14 ar
    27    16    15 1
    28    16    32 1
    29    16    33 1
    30    16    34 1
    31    17    18 ar
    32    17    35 1
    33    18    19 ar
    34    18    36 1
    35    19    20 ar
    36    19    37 1
    37    20    21 1
    38    21    22 1
    39    22    38 1
    40    22    39 1
    41    22    40 1
@<TRIPOS>SUBSTRUCTURE
     1 D2M         1 TEMP              0 ****  ****    0 ROOT
