@<TRIPOS>MOLECULE
D2M
   40    41     1     0     0
SMALL
bcc


@<TRIPOS>ATOM
      1 O29        -0.0290    0.1840    0.2320 oh        1 D2M     -0.477100
      2 C28         1.3350    0.1100    0.0710 ca        1 D2M      0.049100
      3 C26         2.1350    0.0910    1.2390 ca        1 D2M      0.122100
      4 O32         1.4370    0.1230    2.4290 os        1 D2M     -0.322900
      5 C34         2.2270    0.1300    3.6130 c3        1 D2M      0.116200
      6 C23         3.5260    0.0400    1.1450 ca        1 D2M     -0.238500
      7 C21         4.1180    0.0050   -0.1280 ca        1 D2M      0.166100
      8 C22         3.3580    0.0210   -1.2990 ca        1 D2M     -0.238500
      9 C24         1.9650    0.0780   -1.1870 ca        1 D2M      0.122100
     10 O31         1.0970    0.1150   -2.2660 os        1 D2M     -0.322900
     11 C33         1.6790   -0.1330   -3.5410 c3        1 D2M      0.116200
     12 O20         5.5090   -0.0570   -0.1030 os        1 D2M     -0.215200
     13 C3          6.1540   -0.0200   -1.3320 ca        1 D2M      0.018100
     14 C4          6.5340   -1.2210   -1.9680 ca        1 D2M      0.155600
     15 O10         6.0670   -2.3740   -1.3790 os        1 D2M     -0.304400
     16 C11         6.5000   -3.6000   -1.9620 c3        1 D2M      0.110700
     17 C5          7.3280   -1.1870   -3.1230 ca        1 D2M     -0.237500
     18 C6          7.7390    0.0400   -3.6370 ca        1 D2M     -0.058000
     19 C1          7.3760    1.2380   -3.0270 ca        1 D2M     -0.237500
     20 C2          6.5830    1.2120   -1.8710 ca        1 D2M      0.155600
     21 O15         6.1690    2.3320   -1.1860 os        1 D2M     -0.304400
     22 C16         6.6020    3.5860   -1.7060 c3        1 D2M      0.110700
     23 HO29       -0.4320    0.0590   -0.6410 ho        1 D2M      0.426000
     24 H34         1.4630    0.1700    4.4300 h1        1 D2M      0.045200
     25 H34A        2.8360   -0.8030    3.6870 h1        1 D2M      0.045200
     26 H34B        2.8860    1.0310    3.6440 h1        1 D2M      0.045200
     27 H23         4.1690    0.0250    2.0350 ha        1 D2M      0.154500
     28 H22         3.8510   -0.0070   -2.2790 ha        1 D2M      0.154500
     29 H33         0.7960   -0.1560   -4.2290 h1        1 D2M      0.045200
     30 H33A        2.2160   -1.1120   -3.5500 h1        1 D2M      0.045200
     31 H33B        2.3730    0.6970   -3.8190 h1        1 D2M      0.045200
     32 H11         6.1220   -3.6920   -3.0090 h1        1 D2M      0.047700
     33 H11A        7.6140   -3.6790   -1.9370 h1        1 D2M      0.047700
     34 H11B        6.0320   -4.3750   -1.3030 h1        1 D2M      0.047700
     35 H5          7.6310   -2.1170   -3.6220 ha        1 D2M      0.143000
     36 H6          8.3640    0.0640   -4.5430 ha        1 D2M      0.136000
     37 H1          7.7170    2.1920   -3.4520 ha        1 D2M      0.143000
     38 H16         7.7170    3.6530   -1.6970 h1        1 D2M      0.047700
     39 H16A        6.2060    3.7420   -2.7390 h1        1 D2M      0.047700
     40 H16B        6.1540    4.3250   -0.9940 h1        1 D2M      0.047700
@<TRIPOS>BOND
     1    1    2 1   
     2    1   23 1   
     3    2    3 ar  
     4    2    9 ar  
     5    3    4 1   
     6    3    6 ar  
     7    4    5 1   
     8    5   24 1   
     9    5   25 1   
    10    5   26 1   
    11    6    7 ar  
    12    6   27 1   
    13    7    8 ar  
    14    7   12 1   
    15    8    9 ar  
    16    8   28 1   
    17    9   10 1   
    18   10   11 1   
    19   11   29 1   
    20   11   30 1   
    21   11   31 1   
    22   12   13 1   
    23   13   14 ar  
    24   13   20 ar  
    25   14   15 1   
    26   14   17 ar  
    27   15   16 1   
    28   16   32 1   
    29   16   33 1   
    30   16   34 1   
    31   17   18 ar  
    32   17   35 1   
    33   18   19 ar  
    34   18   36 1   
    35   19   20 ar  
    36   19   37 1   
    37   20   21 1   
    38   21   22 1   
    39   22   38 1   
    40   22   39 1   
    41   22   40 1   
@<TRIPOS>SUBSTRUCTURE
     1 D2M         1 TEMP              0 ****  ****    0 ROOT
