@<TRIPOS>MOLECULE
molecule
   64    66     1     0     0
SMALL
bcc


@<TRIPOS>ATOM
      1 N1           0.0000     0.0000     0.0000 nb         1 D2N      -0.785000
      2 C2           1.3290     0.0000     0.0000 ca         1 D2N       0.955900
      3 N3           2.0470     0.0000     1.1080 nb         1 D2N      -0.728000
      4 C4           1.4460     0.0010     2.3070 ca         1 D2N       0.719300
      5 C5           0.0310     0.0010     2.3540 ca         1 D2N      -0.357600
      6 C6          -0.6880     0.0010     1.1340 ca         1 D2N       0.757200
      7 CAA        -10.8020   -12.1110     6.9070 c3         1 D2N      -0.096100
      8 NAD          1.9900    -0.0020    -1.2140 nv         1 D2N      -1.060500
      9 NAE         -2.0660     0.0020     1.1240 nv         1 D2N      -1.082500
     10 OAF         -9.3800    -8.3380     6.0530 o          1 D2N      -0.551000
     11 CAG         -1.4040    -4.0180     7.2210 ca         1 D2N      -0.184000
     12 CAH         -0.1430    -3.5060     7.4590 ca         1 D2N      -0.176000
     13 CAI          1.5490     0.0010     4.6110 ca         1 D2N       0.486200
     14 CAJ         -2.0710    -1.9220     6.2550 ca         1 D2N      -0.127000
     15 CAK        -10.4730   -10.6720     6.5090 c3         1 D2N       0.146400
     16 CAL         -5.5390    -6.9210     6.8500 c3         1 D2N      -0.082400
     17 CAM         -5.2850    -5.4740     6.4240 c3         1 D2N      -0.080400
     18 CAN         -6.9780    -7.3100     6.5020 c3         1 D2N      -0.070400
     19 CAO         -3.8470    -5.0850     6.7730 c3         1 D2N       0.138400
     20 CAP         -7.2320    -8.7570     6.9270 c3         1 D2N      -0.127400
     21 NAR          2.1470     0.0000     3.4410 nb         1 D2N      -0.681000
     22 OAU          1.3980    -1.6990     7.3290 os         1 D2N      -0.334900
     23 OAV         -9.0980   -10.3720     6.8680 os         1 D2N      -0.433900
     24 CAX         -8.6490    -9.1400     6.5830 c          1 D2N       0.631100
     25 CAZ         -2.3700    -3.2280     6.6150 ca         1 D2N       0.112100
     26 CBB         -0.6130     0.0020     3.5980 ca         1 D2N       0.012700
     27 CBC          0.1650     0.0020     4.7250 ca         1 D2N      -0.231600
     28 CBD         -0.8090    -1.4120     6.4890 ca         1 D2N      -0.074300
     29 CBE          0.1570    -2.2030     7.0940 ca         1 D2N       0.110100
     30 HAA        -10.2390   -12.7960     6.2850 hc         1 D2N       0.047700
     31 HAAA       -10.5390   -12.2680     7.9460 hc         1 D2N       0.047700
     32 HAAB       -11.8620   -12.2900     6.7720 hc         1 D2N       0.047700
     33 HAB          1.9640    -2.8780     8.9220 h1         1 D2N       0.042367
     34 HABA         3.2830    -2.0460     8.0860 h1         1 D2N       0.042367
     35 HABB         2.4980    -3.4410     7.3330 h1         1 D2N       0.042367
     36 HAC         -2.5190     0.7890     3.0660 hc         1 D2N       0.051700
     37 HACA        -2.5000    -0.9560     3.3590 hc         1 D2N       0.051700
     38 HACB        -2.4150     0.1710     4.7200 hc         1 D2N       0.051700
     39 HNAD         2.2570     0.8640    -1.6400 hn         1 D2N       0.444800
     40 HNAA         2.2070    -0.8690    -1.6640 hn         1 D2N       0.444800
     41 HNAE        -2.5650    -0.8650     1.1210 hn         1 D2N       0.443800
     42 HNAB        -2.5640     0.8660     1.0510 hn         1 D2N       0.443800
     43 HAG         -1.6370    -5.0380     7.5040 ha         1 D2N       0.136000
     44 HAH          0.6110    -4.1240     7.9320 ha         1 D2N       0.138000
     45 HAI          2.1520     0.0050     5.5110 h4         1 D2N       0.038100
     46 HAJ         -2.8260    -1.3050     5.7820 ha         1 D2N       0.149000
     47 HAK        -11.1380    -9.9920     7.0280 h1         1 D2N       0.049200
     48 HAKA       -10.6000   -10.5550     5.4400 h1         1 D2N       0.049200
     49 HAL         -4.8520    -7.5760     6.3290 hc         1 D2N       0.042700
     50 HALA        -5.3880    -7.0140     7.9180 hc         1 D2N       0.042700
     51 HAM         -5.9730    -4.8180     6.9450 hc         1 D2N       0.058700
     52 HAMA        -5.4360    -5.3800     5.3550 hc         1 D2N       0.058700
     53 HAN         -7.1290    -7.2160     5.4330 hc         1 D2N       0.061700
     54 HANA        -7.6660    -6.6550     7.0230 hc         1 D2N       0.061700
     55 HAO         -3.6960    -5.1790     7.8410 h1         1 D2N       0.034700
     56 HAOA        -3.1600    -5.7410     6.2520 h1         1 D2N       0.034700
     57 HAP         -7.0810    -8.8520     7.9950 hc         1 D2N       0.071700
     58 HAPA        -6.5440    -9.4130     6.4060 hc         1 D2N       0.071700
     59 HAQ         -1.3920     0.5890     6.0540 hc         1 D2N       0.063200
     60 HAQA         0.2000     0.4350     6.8100 hc         1 D2N       0.063200
     61 CAC         -2.1170     0.0010     3.6920 c3         1 D2N      -0.051800
     62 CAQ         -0.4820     0.0030     6.0870 c3         1 D2N       0.024200
     63 OAW         -3.6090    -3.7330     6.3750 os         1 D2N      -0.332900
     64 CAB          2.3430    -2.5690     7.9550 c3         1 D2N       0.128700
@<TRIPOS>BOND
     1     2     1 ar
     2     1     6 ar
     3     3     2 ar
     4     8     2 1
     5     3     4 ar
     6    21     4 ar
     7     4     5 ar
     8     5    26 ar
     9     5     6 ar
    10     6     9 1
    11     7    15 1
    12     7    30 1
    13     7    31 1
    14     7    32 1
    15    22    64 1
    16    64    33 1
    17    64    34 1
    18    64    35 1
    19    26    61 1
    20    61    36 1
    21    61    37 1
    22    61    38 1
    23     8    39 1
    24     8    40 1
    25     9    41 1
    26     9    42 1
    27    10    24 2
    28    12    11 ar
    29    11    25 ar
    30    11    43 1
    31    12    29 ar
    32    12    44 1
    33    21    13 ar
    34    13    27 ar
    35    13    45 1
    36    25    14 ar
    37    28    14 ar
    38    14    46 1
    39    23    15 1
    40    15    47 1
    41    15    48 1
    42    17    16 1
    43    18    16 1
    44    16    49 1
    45    16    50 1
    46    17    19 1
    47    17    51 1
    48    17    52 1
    49    20    18 1
    50    18    53 1
    51    18    54 1
    52    19    63 1
    53    19    55 1
    54    19    56 1
    55    20    24 1
    56    20    57 1
    57    20    58 1
    58    28    62 1
    59    27    62 1
    60    62    59 1
    61    62    60 1
    62    22    29 1
    63    24    23 1
    64    25    63 1
    65    27    26 ar
    66    29    28 ar
@<TRIPOS>SUBSTRUCTURE
     1 D2N         1 TEMP              0 ****  ****    0 ROOT
