@<TRIPOS>MOLECULE
D2N
   64    66     1     0     0
SMALL
bcc


@<TRIPOS>ATOM
      1 N1           0.0000     0.0000     0.0000 nb         1 D2N      -0.652000
      2 C2           1.3290     0.0000     0.0000 ca         1 D2N       0.723900
      3 N3           2.0470     0.0000     1.1080 nb         1 D2N      -0.600000
      4 C4           1.4460     0.0010     2.3070 ca         1 D2N       0.617300
      5 C5           0.0310     0.0010     2.3540 ca         1 D2N      -0.331600
      6 C6          -0.6880     0.0010     1.1340 ca         1 D2N       0.569200
      7 CAA        -10.8020   -12.1110     6.9070 c3         1 D2N      -0.003100
      8 NAD          1.9900    -0.0020    -1.2140 nv         1 D2N      -0.641500
      9 NAE         -2.0660     0.0020     1.1240 nv         1 D2N      -0.664500
     10 OAF         -9.3800    -8.3380     6.0530 o          1 D2N      -0.587000
     11 CAG         -1.4040    -4.0180     7.2210 ca         1 D2N      -0.169000
     12 CAH         -0.1430    -3.5060     7.4590 ca         1 D2N      -0.159000
     13 CAI          1.5490     0.0010     4.6110 ca         1 D2N       0.454200
     14 CAJ         -2.0710    -1.9220     6.2550 ca         1 D2N      -0.117000
     15 CAK        -10.4730   -10.6720     6.5090 c3         1 D2N       0.227400
     16 CAL         -5.5390    -6.9210     6.8500 c3         1 D2N      -0.024400
     17 CAM         -5.2850    -5.4740     6.4240 c3         1 D2N      -0.033400
     18 CAN         -6.9780    -7.3100     6.5020 c3         1 D2N      -0.019400
     19 CAO         -3.8470    -5.0850     6.7730 c3         1 D2N       0.201400
     20 CAP         -7.2320    -8.7570     6.9270 c3         1 D2N      -0.070400
     21 NAR          2.1470     0.0000     3.4410 nb         1 D2N      -0.567000
     22 OAU          1.3980    -1.6990     7.3290 os         1 D2N      -0.309900
     23 OAV         -9.0980   -10.3720     6.8680 os         1 D2N      -0.417900
     24 CAX         -8.6490    -9.1400     6.5830 c          1 D2N       0.693100
     25 CAZ         -2.3700    -3.2280     6.6150 ca         1 D2N       0.120100
     26 CBB         -0.6130     0.0020     3.5980 ca         1 D2N       0.004700
     27 CBC          0.1650     0.0020     4.7250 ca         1 D2N      -0.223600
     28 CBD         -0.8090    -1.4120     6.4890 ca         1 D2N      -0.086300
     29 CBE          0.1570    -2.2030     7.0940 ca         1 D2N       0.118100
     30 HAA        -10.2390   -12.7960     6.2850 hc         1 D2N       0.010700
     31 HAAA       -10.5390   -12.2680     7.9460 hc         1 D2N       0.010700
     32 HAAB       -11.8620   -12.2900     6.7720 hc         1 D2N       0.010700
     33 HAB          1.9640    -2.8780     8.9220 h1         1 D2N      -0.001633
     34 HABA         3.2830    -2.0460     8.0860 h1         1 D2N      -0.001633
     35 HABB         2.4980    -3.4410     7.3330 h1         1 D2N      -0.001633
     36 HAC         -2.5190     0.7890     3.0660 hc         1 D2N       0.027367
     37 HACA        -2.5000    -0.9560     3.3590 hc         1 D2N       0.027367
     38 HACB        -2.4150     0.1710     4.7200 hc         1 D2N       0.027367
     39 HNAD         2.2570     0.8640    -1.6400 hn         1 D2N       0.279800
     40 HNAA         2.2070    -0.8690    -1.6640 hn         1 D2N       0.279800
     41 HNAE        -2.5650    -0.8650     1.1210 hn         1 D2N       0.287300
     42 HNAB        -2.5640     0.8660     1.0510 hn         1 D2N       0.287300
     43 HAG         -1.6370    -5.0380     7.5040 ha         1 D2N       0.119000
     44 HAH          0.6110    -4.1240     7.9320 ha         1 D2N       0.120000
     45 HAI          2.1520     0.0050     5.5110 h4         1 D2N      -0.008900
     46 HAJ         -2.8260    -1.3050     5.7820 ha         1 D2N       0.127000
     47 HAK        -11.1380    -9.9920     7.0280 h1         1 D2N       0.009200
     48 HAKA       -10.6000   -10.5550     5.4400 h1         1 D2N       0.009200
     49 HAL         -4.8520    -7.5760     6.3290 hc         1 D2N       0.013700
     50 HALA        -5.3880    -7.0140     7.9180 hc         1 D2N       0.013700
     51 HAM         -5.9730    -4.8180     6.9450 hc         1 D2N       0.026700
     52 HAMA        -5.4360    -5.3800     5.3550 hc         1 D2N       0.026700
     53 HAN         -7.1290    -7.2160     5.4330 hc         1 D2N       0.031700
     54 HANA        -7.6660    -6.6550     7.0230 hc         1 D2N       0.031700
     55 HAO         -3.6960    -5.1790     7.8410 h1         1 D2N       0.000700
     56 HAOA        -3.1600    -5.7410     6.2520 h1         1 D2N       0.000700
     57 HAP         -7.0810    -8.8520     7.9950 hc         1 D2N       0.035700
     58 HAPA        -6.5440    -9.4130     6.4060 hc         1 D2N       0.035700
     59 HAQ         -1.3920     0.5890     6.0540 hc         1 D2N       0.032200
     60 HAQA         0.2000     0.4350     6.8100 hc         1 D2N       0.032200
     61 CAC         -2.1170     0.0010     3.6920 c3         1 D2N       0.017200
     62 CAQ         -0.4820     0.0030     6.0870 c3         1 D2N       0.097200
     63 OAW         -3.6090    -3.7330     6.3750 os         1 D2N      -0.306900
     64 CAB          2.3430    -2.5690     7.9550 c3         1 D2N       0.242700
@<TRIPOS>BOND
     1     1     2 ar  
     2     1     6 ar  
     3     2     3 ar  
     4     2     8 1   
     5     3     4 ar  
     6     4     5 ar  
     7     4    21 ar  
     8     5     6 ar  
     9     5    26 ar  
    10     6     9 1   
    11     7    15 1   
    12     7    30 1   
    13     7    31 1   
    14     7    32 1   
    15     8    39 1   
    16     8    40 1   
    17     9    41 1   
    18     9    42 1   
    19    10    24 2   
    20    11    12 ar  
    21    11    25 ar  
    22    11    43 1   
    23    12    29 ar  
    24    12    44 1   
    25    13    21 ar  
    26    13    27 ar  
    27    13    45 1   
    28    14    25 ar  
    29    14    28 ar  
    30    14    46 1   
    31    15    23 1   
    32    15    47 1   
    33    15    48 1   
    34    16    17 1   
    35    16    18 1   
    36    16    49 1   
    37    16    50 1   
    38    17    19 1   
    39    17    51 1   
    40    17    52 1   
    41    18    20 1   
    42    18    53 1   
    43    18    54 1   
    44    19    55 1   
    45    19    56 1   
    46    19    63 1   
    47    20    24 1   
    48    20    57 1   
    49    20    58 1   
    50    22    29 1   
    51    22    64 1   
    52    23    24 1   
    53    25    63 1   
    54    26    27 ar  
    55    26    61 1   
    56    27    62 1   
    57    28    29 ar  
    58    28    62 1   
    59    33    64 1   
    60    34    64 1   
    61    35    64 1   
    62    36    61 1   
    63    37    61 1   
    64    38    61 1   
    65    59    62 1   
    66    60    62 1   
@<TRIPOS>SUBSTRUCTURE
     1 D2N         1 TEMP              0 ****  ****    0 ROOT
