@<TRIPOS>MOLECULE
molecule
   56    59     1     0     0
SMALL
bcc


@<TRIPOS>ATOM
      1 N1           0.0000     0.0000     0.0000 nb         1 D2O      -0.784000
      2 C2           1.3290     0.0000     0.0000 ca         1 D2O       0.956900
      3 N3           2.0450     0.0000     1.1090 nb         1 D2O      -0.728000
      4 C4           1.4440    -0.0000     2.3070 ca         1 D2O       0.719300
      5 C5           0.0280     0.0000     2.3530 ca         1 D2O      -0.359600
      6 C6          -0.6900     0.0000     1.1320 ca         1 D2O       0.758200
      7 NAC          1.9910    -0.0000    -1.2130 nv         1 D2O      -1.059500
      8 NAD         -2.0670     0.0000     1.1220 nv         1 D2O      -1.084500
      9 CAE         -6.0290    -9.4950     7.6650 ca         1 D2O      -0.126000
     10 CAF         -6.2670    -8.4560     8.5440 ca         1 D2O      -0.126000
     11 CAG         -5.5530    -9.2300     6.3940 ca         1 D2O      -0.126000
     12 CAH         -6.0330    -7.1510     8.1520 ca         1 D2O      -0.122000
     13 CAI         -5.3190    -7.9250     6.0010 ca         1 D2O      -0.122000
     14 CAJ         -1.4140    -4.0190     7.2250 ca         1 D2O      -0.182000
     15 CAK         -0.1530    -3.5100     7.4610 ca         1 D2O      -0.176000
     16 CAL          1.5450    -0.0020     4.6120 ca         1 D2O       0.486200
     17 CAM         -2.0780    -1.9260     6.2510 ca         1 D2O      -0.128000
     18 CAN         -3.8640    -5.0790     6.7930 c3         1 D2O       0.142400
     19 CAO         -5.3050    -5.4630     6.4530 c3         1 D2O      -0.034100
     20 NAQ          2.1440    -0.0010     3.4420 nb         1 D2O      -0.681000
     21 OAT          1.3930    -1.7060     7.3240 os         1 D2O      -0.334900
     22 CAV         -5.5590    -6.8860     6.8810 ca         1 D2O      -0.090300
     23 CAW         -2.3800    -3.2280     6.6200 ca         1 D2O       0.112100
     24 CAY          0.1590    -0.0010     4.7250 ca         1 D2O      -0.230600
     25 CAZ         -0.8150    -1.4160     6.4870 ca         1 D2O      -0.075300
     26 CBB         -0.6170    -0.0000     3.5960 ca         1 D2O       0.010700
     27 CBC          0.1500    -2.2070     7.0920 ca         1 D2O       0.110100
     28 HAA          2.4870    -3.4520     7.3320 h1         1 D2O       0.042367
     29 HAAA         3.2790    -2.0570     8.0760 h1         1 D2O       0.042367
     30 HAAB         1.9600    -2.8790     8.9210 h1         1 D2O       0.042367
     31 HAB         -2.5040    -0.9530     3.3450 hc         1 D2O       0.051367
     32 HABA        -2.4200     0.1590     4.7180 hc         1 D2O       0.051367
     33 HABB        -2.5210     0.7940     3.0700 hc         1 D2O       0.051367
     34 HNAC         2.2240     0.8660    -1.6550 hn         1 D2O       0.444800
     35 HNAA         2.2360    -0.8670    -1.6490 hn         1 D2O       0.444800
     36 HNAD        -2.5670    -0.8660     1.1130 hn         1 D2O       0.444300
     37 HNAB        -2.5670     0.8670     1.1040 hn         1 D2O       0.444300
     38 HAF         -6.6390    -8.6630     9.5400 ha         1 D2O       0.131000
     39 HAG         -5.3660   -10.0450     5.7050 ha         1 D2O       0.131000
     40 HAH         -6.2200    -6.3360     8.8410 ha         1 D2O       0.132000
     41 HAI         -4.9470    -7.7180     5.0050 ha         1 D2O       0.132000
     42 HAJ         -1.6500    -5.0360     7.5130 ha         1 D2O       0.139000
     43 HAK          0.6010    -4.1280     7.9330 ha         1 D2O       0.138000
     44 HAL          2.1470    -0.0030     5.5130 h4         1 D2O       0.039100
     45 HAM         -2.8320    -1.3090     5.7790 ha         1 D2O       0.148000
     46 HAN         -3.1810    -5.7400     6.2720 h1         1 D2O       0.038700
     47 HANA        -3.7090    -5.1680     7.8610 h1         1 D2O       0.038700
     48 HAO         -5.9880    -4.8020     6.9720 hc         1 D2O       0.061700
     49 HAOA        -5.4600    -5.3750     5.3840 hc         1 D2O       0.061700
     50 CAB         -2.1210    -0.0000     3.6890 c3         1 D2O      -0.052800
     51 CAP         -0.4870    -0.0010     6.0860 c3         1 D2O       0.024200
     52 OAU         -3.6230    -3.7300     6.3870 os         1 D2O      -0.336900
     53 CAA          2.3370    -2.5760     7.9510 c3         1 D2O       0.128700
     54 HAE         -6.2130   -10.5170     7.9720 ha         1 D2O       0.131000
     55 HAP         -1.3970     0.5850     6.0540 hc         1 D2O       0.063200
     56 HAPA         0.1940     0.4300     6.8100 hc         1 D2O       0.063200
@<TRIPOS>BOND
     1     1     2 ar
     2     1     6 ar
     3     2     3 ar
     4     2     7 1
     5     3     4 ar
     6     4     5 ar
     7     4    20 ar
     8     5     6 ar
     9     5    26 ar
    10     6     8 1
    11    53    21 1
    12    50    26 1
    13     9    10 ar
    14     9    11 ar
    15    10    12 ar
    16    11    13 ar
    17    12    22 ar
    18    13    22 ar
    19    14    15 ar
    20    14    23 ar
    21    15    27 ar
    22    16    20 ar
    23    16    24 ar
    24    17    23 ar
    25    17    25 ar
    26    18    19 1
    27    18    52 1
    28    19    22 1
    29    51    24 1
    30    51    25 1
    31    21    27 1
    32    52    23 1
    33    24    26 ar
    34    25    27 ar
    35    53    28 1
    36    53    29 1
    37    53    30 1
    38    50    31 1
    39    50    32 1
    40    50    33 1
    41     7    34 1
    42     7    35 1
    43     8    36 1
    44     8    37 1
    45     9    54 1
    46    10    38 1
    47    11    39 1
    48    12    40 1
    49    13    41 1
    50    14    42 1
    51    15    43 1
    52    16    44 1
    53    17    45 1
    54    18    46 1
    55    18    47 1
    56    19    48 1
    57    19    49 1
    58    51    55 1
    59    51    56 1
@<TRIPOS>SUBSTRUCTURE
     1 D2O         1 TEMP              0 ****  ****    0 ROOT
