@<TRIPOS>MOLECULE
D2O
   56    59     1     0     0
SMALL
bcc


@<TRIPOS>ATOM
      1 N1           0.0000     0.0000     0.0000 nb         1 D2O      -0.650000
      2 C2           1.3290     0.0000     0.0000 ca         1 D2O       0.722900
      3 N3           2.0450     0.0000     1.1090 nb         1 D2O      -0.598000
      4 C4           1.4440    -0.0000     2.3070 ca         1 D2O       0.617300
      5 C5           0.0280     0.0000     2.3530 ca         1 D2O      -0.333600
      6 C6          -0.6900     0.0000     1.1320 ca         1 D2O       0.570200
      7 NAC          1.9910    -0.0000    -1.2130 nv         1 D2O      -0.640500
      8 NAD         -2.0670     0.0000     1.1220 nv         1 D2O      -0.666500
      9 CAE         -6.0290    -9.4950     7.6650 ca         1 D2O      -0.101000
     10 CAF         -6.2670    -8.4560     8.5440 ca         1 D2O      -0.098000
     11 CAG         -5.5530    -9.2300     6.3940 ca         1 D2O      -0.098000
     12 CAH         -6.0330    -7.1510     8.1520 ca         1 D2O      -0.096000
     13 CAI         -5.3190    -7.9250     6.0010 ca         1 D2O      -0.096000
     14 CAJ         -1.4140    -4.0190     7.2250 ca         1 D2O      -0.167000
     15 CAK         -0.1530    -3.5100     7.4610 ca         1 D2O      -0.159000
     16 CAL          1.5450    -0.0020     4.6120 ca         1 D2O       0.454200
     17 CAM         -2.0780    -1.9260     6.2510 ca         1 D2O      -0.117000
     18 CAN         -3.8640    -5.0790     6.7930 c3         1 D2O       0.203400
     19 CAO         -5.3050    -5.4630     6.4530 c3         1 D2O       0.026900
     20 NAQ          2.1440    -0.0010     3.4420 nb         1 D2O      -0.566000
     21 OAT          1.3930    -1.7060     7.3240 os         1 D2O      -0.310900
     22 CAV         -5.5590    -6.8860     6.8810 ca         1 D2O      -0.095300
     23 CAW         -2.3800    -3.2280     6.6200 ca         1 D2O       0.119100
     24 CAY          0.1590    -0.0010     4.7250 ca         1 D2O      -0.222600
     25 CAZ         -0.8150    -1.4160     6.4870 ca         1 D2O      -0.088300
     26 CBB         -0.6170    -0.0000     3.5960 ca         1 D2O       0.002700
     27 CBC          0.1500    -2.2070     7.0920 ca         1 D2O       0.118100
     28 HAA          2.4870    -3.4520     7.3320 h1         1 D2O      -0.001633
     29 HAAA         3.2790    -2.0570     8.0760 h1         1 D2O      -0.001633
     30 HAAB         1.9600    -2.8790     8.9210 h1         1 D2O      -0.001633
     31 HAB         -2.5040    -0.9530     3.3450 hc         1 D2O       0.026700
     32 HABA        -2.4200     0.1590     4.7180 hc         1 D2O       0.026700
     33 HABB        -2.5210     0.7940     3.0700 hc         1 D2O       0.026700
     34 HNAC         2.2240     0.8660    -1.6550 hn         1 D2O       0.279800
     35 HNAA         2.2360    -0.8670    -1.6490 hn         1 D2O       0.279800
     36 HNAD        -2.5670    -0.8660     1.1130 hn         1 D2O       0.287800
     37 HNAB        -2.5670     0.8670     1.1040 hn         1 D2O       0.287800
     38 HAF         -6.6390    -8.6630     9.5400 ha         1 D2O       0.103000
     39 HAG         -5.3660   -10.0450     5.7050 ha         1 D2O       0.103000
     40 HAH         -6.2200    -6.3360     8.8410 ha         1 D2O       0.107000
     41 HAI         -4.9470    -7.7180     5.0050 ha         1 D2O       0.107000
     42 HAJ         -1.6500    -5.0360     7.5130 ha         1 D2O       0.121000
     43 HAK          0.6010    -4.1280     7.9330 ha         1 D2O       0.120000
     44 HAL          2.1470    -0.0030     5.5130 h4         1 D2O      -0.007900
     45 HAM         -2.8320    -1.3090     5.7790 ha         1 D2O       0.126000
     46 HAN         -3.1810    -5.7400     6.2720 h1         1 D2O       0.004700
     47 HANA        -3.7090    -5.1680     7.8610 h1         1 D2O       0.004700
     48 HAO         -5.9880    -4.8020     6.9720 hc         1 D2O       0.027200
     49 HAOA        -5.4600    -5.3750     5.3840 hc         1 D2O       0.027200
     50 CAB         -2.1210    -0.0000     3.6890 c3         1 D2O       0.017200
     51 CAP         -0.4870    -0.0010     6.0860 c3         1 D2O       0.097200
     52 OAU         -3.6230    -3.7300     6.3870 os         1 D2O      -0.309900
     53 CAA          2.3370    -2.5760     7.9510 c3         1 D2O       0.242700
     54 HAE         -6.2130   -10.5170     7.9720 ha         1 D2O       0.103000
     55 HAP         -1.3970     0.5850     6.0540 hc         1 D2O       0.032200
     56 HAPA         0.1940     0.4300     6.8100 hc         1 D2O       0.032200
@<TRIPOS>BOND
     1     1     2 ar  
     2     1     6 ar  
     3     2     3 ar  
     4     2     7 1   
     5     3     4 ar  
     6     4     5 ar  
     7     4    20 ar  
     8     5     6 ar  
     9     5    26 ar  
    10     6     8 1   
    11     7    34 1   
    12     7    35 1   
    13     8    36 1   
    14     8    37 1   
    15     9    10 ar  
    16     9    11 ar  
    17     9    54 1   
    18    10    12 ar  
    19    10    38 1   
    20    11    13 ar  
    21    11    39 1   
    22    12    22 ar  
    23    12    40 1   
    24    13    22 ar  
    25    13    41 1   
    26    14    15 ar  
    27    14    23 ar  
    28    14    42 1   
    29    15    27 ar  
    30    15    43 1   
    31    16    20 ar  
    32    16    24 ar  
    33    16    44 1   
    34    17    23 ar  
    35    17    25 ar  
    36    17    45 1   
    37    18    19 1   
    38    18    46 1   
    39    18    47 1   
    40    18    52 1   
    41    19    22 1   
    42    19    48 1   
    43    19    49 1   
    44    21    27 1   
    45    21    53 1   
    46    23    52 1   
    47    24    26 ar  
    48    24    51 1   
    49    25    27 ar  
    50    25    51 1   
    51    26    50 1   
    52    28    53 1   
    53    29    53 1   
    54    30    53 1   
    55    31    50 1   
    56    32    50 1   
    57    33    50 1   
    58    51    55 1   
    59    51    56 1   
@<TRIPOS>SUBSTRUCTURE
     1 D2O         1 TEMP              0 ****  ****    0 ROOT
