@<TRIPOS>MOLECULE
D2P
   12    11     1     0     0
SMALL
bcc


@<TRIPOS>ATOM
      1 O1          0.0020    0.1880    0.0950 oh        1 D2P     -0.603800
      2 C2          1.4050   -0.0080    0.0030 c3        1 D2P      0.121400
      3 C3          1.9390   -0.0200    1.4350 c3        1 D2P      0.039700
      4 C4          1.3960   -1.2160    2.1870 c3        1 D2P      0.025000
      5 CL5         1.7520   -1.1460    3.8980 cl        1 D2P     -0.174400
      6 CL1         3.7020   -0.0360    1.3840 cl        1 D2P     -0.174400
      7 H1         -0.3180    0.3110   -0.8070 ho        1 D2P      0.411000
      8 H2C1        1.6210   -0.9850   -0.5070 h1        1 D2P      0.042700
      9 H2C2        1.8780    0.8270   -0.5790 h1        1 D2P      0.042700
     10 H3          1.6530    0.9330    1.9530 h1        1 D2P      0.100700
     11 H4C1        1.8290   -2.1710    1.8020 h1        1 D2P      0.085200
     12 H4C2        0.2810   -1.2340    2.0850 h1        1 D2P      0.085200
@<TRIPOS>BOND
     1    1    2 1   
     2    1    7 1   
     3    2    3 1   
     4    2    8 1   
     5    2    9 1   
     6    3    4 1   
     7    3    6 1   
     8    3   10 1   
     9    4    5 1   
    10    4   11 1   
    11    4   12 1   
@<TRIPOS>SUBSTRUCTURE
     1 D2P         1 TEMP              0 ****  ****    0 ROOT
