@<TRIPOS>MOLECULE
molecule
   12    11     1     0     0
SMALL
bcc


@<TRIPOS>ATOM
      1 O1           0.0000     0.0000     0.0000 oh         1 D2P      -0.614800
      2 C2           1.4290     0.0000     0.0000 c3         1 D2P       0.132400
      3 C3           1.9380     0.0000     1.4430 c3         1 D2P       0.046700
      4 C4           1.3280    -1.1810     2.2000 c3         1 D2P       0.047000
      5 Cl5          1.9280    -1.1810     3.9000 cl         1 D2P      -0.191400
      6 Cl1          3.7360    -0.1480     1.4460 cl         1 D2P      -0.177400
      7 H1          -0.3140     0.2300    -0.8590 ho         1 D2P       0.415000
      8 H2C1         1.7910     0.8850    -0.5100 h1         1 D2P       0.040700
      9 H2C2         1.7910    -0.8850    -0.5100 h1         1 D2P       0.040700
     10 H3           1.6510     0.9260     1.9270 h1         1 D2P       0.094700
     11 H4C1         1.6140    -2.1060     1.7160 h1         1 D2P       0.083700
     12 H4C2         0.2480    -1.0910     2.1980 h1         1 D2P       0.083700
@<TRIPOS>BOND
     1     1     2 1
     2     1     7 1
     3     2     3 1
     4     2     8 1
     5     2     9 1
     6     3     4 1
     7     3     6 1
     8     3    10 1
     9     4     5 1
    10     4    11 1
    11     4    12 1
@<TRIPOS>SUBSTRUCTURE
     1 D2P         1 TEMP              0 ****  ****    0 ROOT
