@<TRIPOS>MOLECULE
D2Q
   61    63     1     0     0
SMALL
bcc


@<TRIPOS>ATOM
      1 C1           0.0000     0.0000     0.0000 c3         1 D2Q       0.226400
      2 C2           1.5310     0.0000     0.0000 c3         1 D2Q      -0.003100
      3 C3          -3.9180     0.0010     2.8570 c3         1 D2Q      -0.014400
      4 C1'         -8.5290     0.0010     6.8710 ca         1 D2Q      -0.089300
      5 N1'         -6.0900     5.2120     9.3200 nb         1 D2Q      -0.599000
      6 C2'         -6.8750     5.9960    10.0330 ca         1 D2Q       0.723900
      7 C2'A        -7.9330     0.0010     5.6200 ca         1 D2Q       0.121100
      8 N2'         -6.4500     7.2800    10.3120 nv         1 D2Q      -0.641500
      9 O2'         -6.5770     0.0010     5.5110 os         1 D2Q      -0.310900
     10 C21         -6.0300     0.0000     4.1910 c3         1 D2Q       0.202400
     11 C26         -4.5030     0.0000     4.2710 c3         1 D2Q      -0.038400
     12 C3'         -8.7190     0.0000     4.4760 ca         1 D2Q      -0.160000
     13 N3'         -8.0590     5.6040    10.4960 nb         1 D2Q      -0.653000
     14 C4'         -8.5200     4.3840    10.2610 ca         1 D2Q       0.570200
     15 C4'A       -10.0960     0.0010     4.5860 ca         1 D2Q      -0.167000
     16 N4'         -9.7470     3.9860    10.7430 nv         1 D2Q      -0.664500
     17 C44         -2.3900     0.0010     2.9380 c3         1 D2Q      -0.069400
     18 C45         -1.8140     0.0010     1.5450 c          1 D2Q       0.694100
     19 O46         -2.5500    -0.0000     0.5870 o          1 D2Q      -0.591000
     20 O47         -0.4840     0.0000     1.3690 os         1 D2Q      -0.415900
     21 C4A         -7.7180     3.4980     9.4980 ca         1 D2Q      -0.332600
     22 C5'         -8.1250     2.1930     9.2020 ca         1 D2Q       0.004700
     23 C5'A       -10.6920     0.0010     5.8380 ca         1 D2Q       0.117100
     24 O5'        -12.0470     0.0010     5.9450 os         1 D2Q      -0.309900
     25 C51         -9.4510     1.6650     9.6850 c3         1 D2Q       0.017200
     26 C5A        -12.7950     0.0000     4.7270 c3         1 D2Q       0.244700
     27 C6'         -7.2820     1.4080     8.4590 ca         1 D2Q      -0.223600
     28 C6'A        -9.9060     0.0010     6.9800 ca         1 D2Q      -0.116000
     29 C7'         -6.0650     1.9180     8.0260 ca         1 D2Q       0.453200
     30 N8'         -5.6890     3.1460     8.3070 nb         1 D2Q      -0.567000
     31 C8A         -6.4630     3.9580     9.0260 ca         1 D2Q       0.617300
     32 H1          -0.3610     0.8850    -0.5110 h1         1 D2Q       0.009200
     33 H1A         -0.3610    -0.8850    -0.5110 h1         1 D2Q       0.009200
     34 H2           1.8920     0.0410    -1.0210 hc         1 D2Q       0.010700
     35 H2A          1.8920    -0.9040     0.4740 hc         1 D2Q       0.010700
     36 H2B          1.8920     0.8630     0.5460 hc         1 D2Q       0.010700
     37 H3          -4.2520    -0.8830     2.3280 hc         1 D2Q       0.029700
     38 H3A         -4.2520     0.8860     2.3290 hc         1 D2Q       0.029700
     39 HN2'        -5.9130     7.4620    11.1360 hn         1 D2Q       0.279800
     40 HN2A        -6.6860     8.0310     9.6930 hn         1 D2Q       0.279800
     41 H21         -6.3640     0.8840     3.6620 h1         1 D2Q       0.004700
     42 H21A        -6.3640    -0.8850     3.6630 h1         1 D2Q       0.004700
     43 H26         -4.1690    -0.8840     4.8000 hc         1 D2Q       0.024700
     44 H26A        -4.1690     0.8850     4.8010 hc         1 D2Q       0.024700
     45 H3'         -8.2540    -0.0000     3.4980 ha         1 D2Q       0.121000
     46 H4'        -10.7100     0.0000     3.6930 ha         1 D2Q       0.120000
     47 HN4'        -9.8240     3.6180    11.6710 hn         1 D2Q       0.287300
     48 HN4A       -10.5710     4.1260    10.1920 hn         1 D2Q       0.287300
     49 H44         -2.0560    -0.8830     3.4670 hc         1 D2Q       0.038200
     50 H44A        -2.0570     0.8860     3.4660 hc         1 D2Q       0.038200
     51 H51         -9.5500     1.8550    10.7470 hc         1 D2Q       0.027367
     52 H51A       -10.2530     2.1620     9.1530 hc         1 D2Q       0.027367
     53 H51B        -9.5030     0.5980     9.5030 hc         1 D2Q       0.027367
     54 H5A        -12.5480    -0.8840     4.1520 h1         1 D2Q      -0.002633
     55 H5AA       -13.8540     0.0000     4.9530 h1         1 D2Q      -0.002633
     56 H5AB       -12.5480     0.8850     4.1520 h1         1 D2Q      -0.002633
     57 H6'        -10.3720     0.0020     7.9590 ha         1 D2Q       0.126000
     58 H61         -6.7820    -0.5940     7.9350 hc         1 D2Q       0.032200
     59 H61A        -8.2340    -0.4360     8.9340 hc         1 D2Q       0.032200
     60 H7'         -5.4080     1.2870     7.4390 h4         1 D2Q      -0.008900
     61 C61         -7.6740    -0.0050     8.1130 c3         1 D2Q       0.097200
@<TRIPOS>BOND
     1     1     2 1   
     2     1    20 1   
     3     1    32 1   
     4     1    33 1   
     5     2    34 1   
     6     2    35 1   
     7     2    36 1   
     8     3    11 1   
     9     3    17 1   
    10     3    37 1   
    11     3    38 1   
    12     4     7 ar  
    13     4    28 ar  
    14     4    61 1   
    15     5     6 ar  
    16     5    31 ar  
    17     6     8 1   
    18     6    13 ar  
    19     7     9 1   
    20     7    12 ar  
    21     8    39 1   
    22     8    40 1   
    23     9    10 1   
    24    10    11 1   
    25    10    41 1   
    26    10    42 1   
    27    11    43 1   
    28    11    44 1   
    29    12    15 ar  
    30    12    45 1   
    31    13    14 ar  
    32    14    16 1   
    33    14    21 ar  
    34    15    23 ar  
    35    15    46 1   
    36    16    47 1   
    37    16    48 1   
    38    17    18 1   
    39    17    49 1   
    40    17    50 1   
    41    18    19 2   
    42    18    20 1   
    43    21    22 ar  
    44    21    31 ar  
    45    22    25 1   
    46    22    27 ar  
    47    23    24 1   
    48    23    28 ar  
    49    24    26 1   
    50    25    51 1   
    51    25    52 1   
    52    25    53 1   
    53    26    54 1   
    54    26    55 1   
    55    26    56 1   
    56    27    29 ar  
    57    27    61 1   
    58    28    57 1   
    59    29    30 ar  
    60    29    60 1   
    61    30    31 ar  
    62    58    61 1   
    63    59    61 1   
@<TRIPOS>SUBSTRUCTURE
     1 D2Q         1 TEMP              0 ****  ****    0 ROOT
