@<TRIPOS>MOLECULE
molecule
   61    63     1     0     0
SMALL
bcc


@<TRIPOS>ATOM
      1 C1           0.0000     0.0000     0.0000 c3         1 D2Q       0.146400
      2 C2           1.5310     0.0000     0.0000 c3         1 D2Q      -0.096100
      3 C3          -3.9180     0.0010     2.8570 c3         1 D2Q      -0.070400
      4 C1'         -8.5290     0.0010     6.8710 ca         1 D2Q      -0.076300
      5 N1'         -6.0900     5.2120     9.3200 nb         1 D2Q      -0.729000
      6 C2'         -6.8750     5.9960    10.0330 ca         1 D2Q       0.957900
      7 C2'A        -7.9330     0.0010     5.6200 ca         1 D2Q       0.114100
      8 N2'         -6.4500     7.2800    10.3120 nv         1 D2Q      -1.059500
      9 O2'         -6.5770     0.0010     5.5110 os         1 D2Q      -0.338900
     10 C21         -6.0300     0.0000     4.1910 c3         1 D2Q       0.140400
     11 C26         -4.5030     0.0000     4.2710 c3         1 D2Q      -0.086400
     12 C3'         -8.7190     0.0000     4.4760 ca         1 D2Q      -0.176000
     13 N3'         -8.0590     5.6040    10.4960 nb         1 D2Q      -0.786000
     14 C4'         -8.5200     4.3840    10.2610 ca         1 D2Q       0.757200
     15 C4'A       -10.0960     0.0010     4.5860 ca         1 D2Q      -0.182000
     16 N4'         -9.7470     3.9860    10.7430 nv         1 D2Q      -1.082500
     17 C44         -2.3900     0.0010     2.9380 c3         1 D2Q      -0.125400
     18 C45         -1.8140     0.0010     1.5450 c          1 D2Q       0.632100
     19 O46         -2.5500    -0.0000     0.5870 o          1 D2Q      -0.554000
     20 O47         -0.4840     0.0000     1.3690 os         1 D2Q      -0.431900
     21 C4A         -7.7180     3.4980     9.4980 ca         1 D2Q      -0.357600
     22 C5'         -8.1250     2.1930     9.2020 ca         1 D2Q       0.013700
     23 C5'A       -10.6920     0.0010     5.8380 ca         1 D2Q       0.108100
     24 O5'        -12.0470     0.0010     5.9450 os         1 D2Q      -0.331900
     25 C51         -9.4510     1.6650     9.6850 c3         1 D2Q      -0.052800
     26 C5A        -12.7950     0.0000     4.7270 c3         1 D2Q       0.129700
     27 C6'         -7.2820     1.4080     8.4590 ca         1 D2Q      -0.230600
     28 C6'A        -9.9060     0.0010     6.9800 ca         1 D2Q      -0.127000
     29 C7'         -6.0650     1.9180     8.0260 ca         1 D2Q       0.485200
     30 N8'         -5.6890     3.1460     8.3070 nb         1 D2Q      -0.682000
     31 C8A         -6.4630     3.9580     9.0260 ca         1 D2Q       0.720300
     32 H1          -0.3610     0.8850    -0.5110 h1         1 D2Q       0.049200
     33 H1A         -0.3610    -0.8850    -0.5110 h1         1 D2Q       0.049200
     34 H2           1.8920     0.0410    -1.0210 hc         1 D2Q       0.047700
     35 H2A          1.8920    -0.9040     0.4740 hc         1 D2Q       0.047700
     36 H2B          1.8920     0.8630     0.5460 hc         1 D2Q       0.047700
     37 H3          -4.2520    -0.8830     2.3280 hc         1 D2Q       0.060200
     38 H3A         -4.2520     0.8860     2.3290 hc         1 D2Q       0.060200
     39 HN2'        -5.9130     7.4620    11.1360 hn         1 D2Q       0.444800
     40 HN2A        -6.6860     8.0310     9.6930 hn         1 D2Q       0.444800
     41 H21         -6.3640     0.8840     3.6620 h1         1 D2Q       0.038700
     42 H21A        -6.3640    -0.8850     3.6630 h1         1 D2Q       0.038700
     43 H26         -4.1690    -0.8840     4.8000 hc         1 D2Q       0.056200
     44 H26A        -4.1690     0.8850     4.8010 hc         1 D2Q       0.056200
     45 H3'         -8.2540    -0.0000     3.4980 ha         1 D2Q       0.139000
     46 H4'        -10.7100     0.0000     3.6930 ha         1 D2Q       0.137000
     47 HN4'        -9.8240     3.6180    11.6710 hn         1 D2Q       0.443800
     48 HN4A       -10.5710     4.1260    10.1920 hn         1 D2Q       0.443800
     49 H44         -2.0560    -0.8830     3.4670 hc         1 D2Q       0.075200
     50 H44A        -2.0570     0.8860     3.4660 hc         1 D2Q       0.075200
     51 H51         -9.5500     1.8550    10.7470 hc         1 D2Q       0.052033
     52 H51A       -10.2530     2.1620     9.1530 hc         1 D2Q       0.052033
     53 H51B        -9.5030     0.5980     9.5030 hc         1 D2Q       0.052033
     54 H5A        -12.5480    -0.8840     4.1520 h1         1 D2Q       0.041033
     55 H5AA       -13.8540     0.0000     4.9530 h1         1 D2Q       0.041033
     56 H5AB       -12.5480     0.8850     4.1520 h1         1 D2Q       0.041033
     57 H6'        -10.3720     0.0020     7.9590 ha         1 D2Q       0.149000
     58 H61         -6.7820    -0.5940     7.9350 hc         1 D2Q       0.063200
     59 H61A        -8.2340    -0.4360     8.9340 hc         1 D2Q       0.063200
     60 H7'         -5.4080     1.2870     7.4390 h4         1 D2Q       0.038100
     61 C61         -7.6740    -0.0050     8.1130 c3         1 D2Q       0.025200
@<TRIPOS>BOND
     1     1     2 1
     2     1    20 1
     3     3    11 1
     4     3    17 1
     5     4     7 ar
     6     4    28 ar
     7     4    61 1
     8     5     6 ar
     9     5    31 ar
    10     6     8 1
    11     6    13 ar
    12     7     9 1
    13     7    12 ar
    14     9    10 1
    15    10    11 1
    16    12    15 ar
    17    13    14 ar
    18    14    16 1
    19    14    21 ar
    20    15    23 ar
    21    17    18 1
    22    18    19 2
    23    18    20 1
    24    21    22 ar
    25    21    31 ar
    26    22    25 1
    27    22    27 ar
    28    23    24 1
    29    23    28 ar
    30    24    26 1
    31    27    61 1
    32    27    29 ar
    33    29    30 ar
    34    30    31 ar
    35     1    32 1
    36     1    33 1
    37     2    34 1
    38     2    35 1
    39     2    36 1
    40     3    37 1
    41     3    38 1
    42     8    39 1
    43     8    40 1
    44    10    41 1
    45    10    42 1
    46    11    43 1
    47    11    44 1
    48    12    45 1
    49    15    46 1
    50    16    47 1
    51    16    48 1
    52    17    49 1
    53    17    50 1
    54    25    51 1
    55    25    52 1
    56    25    53 1
    57    26    54 1
    58    26    55 1
    59    26    56 1
    60    28    57 1
    61    61    58 1
    62    61    59 1
    63    29    60 1
@<TRIPOS>SUBSTRUCTURE
     1 D2Q         1 TEMP              0 ****  ****    0 ROOT
