@<TRIPOS>MOLECULE
molecule
   52    54     1     0     0
SMALL
bcc


@<TRIPOS>ATOM
      1 N1           0.0000     0.0000     0.0000 nb         1 D2R      -0.843000
      2 C2           1.3300     0.0000     0.0000 ca         1 D2R       0.926900
      3 N3           2.0460     0.0000     1.1090 nb         1 D2R      -0.782000
      4 C4           1.4450     0.0000     2.3070 ca         1 D2R       0.725300
      5 C5           0.0290     0.0010     2.3540 ca         1 D2R      -0.383600
      6 C6          -0.6880    -0.0000     1.1330 ca         1 D2R       0.771200
      7 CAA         -3.8550    -5.0810     6.7850 c3         1 D2R       0.106700
      8 NAC          1.9900    -0.0000    -1.2140 nv         1 D2R      -1.036500
      9 NAD         -2.0660    -0.0010     1.1230 nv         1 D2R      -1.039500
     10 OAE          5.7950    -2.8390    10.7730 o          1 D2R      -0.837800
     11 OAF          7.3630    -3.0950     9.3430 o          1 D2R      -0.837800
     12 CAG          2.5380    -1.2550     7.5630 c1         1 D2R       0.043900
     13 CAI         -1.4090    -4.0260     7.2290 ca         1 D2R      -0.193000
     14 CAJ         -0.1480    -3.5220     7.4660 ca         1 D2R      -0.075000
     15 CAK          1.5470    -0.0000     4.6120 ca         1 D2R       0.468200
     16 CAL         -2.0720    -1.9240     6.2580 ca         1 D2R      -0.154000
     17 CAM          3.9700    -1.1140     7.1270 c3         1 D2R      -0.142300
     18 CAN          4.6600    -1.4960     8.6360 c3         1 D2R       0.047600
     19 CAO          4.9820    -2.6710     8.5900 c3         1 D2R      -0.185400
     20 NAQ          2.1450    -0.0000     3.4420 nb         1 D2R      -0.700000
     21 CAU          6.2300    -2.7710     9.4930 c          1 D2R       0.873600
     22 CAX         -0.6150    -0.0000     3.5970 ca         1 D2R       0.008700
     23 CAY         -2.3730    -3.2310     6.6220 ca         1 D2R       0.116100
     24 CAZ          0.1600    -2.2120     7.0960 ca         1 D2R       0.080000
     25 CBA          0.1620     0.0000     4.7250 ca         1 D2R      -0.136600
     26 CBB         -0.8110    -1.4160     6.4870 ca         1 D2R      -0.134300
     27 HAA         -4.7180    -5.2350     7.4220 h1         1 D2R       0.043033
     28 HAAA        -4.0200    -5.7990     5.9910 h1         1 D2R       0.043033
     29 HAAB        -3.0760    -5.3700     7.4800 h1         1 D2R       0.043033
     30 HAB         -2.3870     0.1900     4.7230 hc         1 D2R       0.054033
     31 HABA        -2.5370    -1.0000     3.6640 hc         1 D2R       0.054033
     32 HABB        -2.6850     0.4110     2.8640 hc         1 D2R       0.054033
     33 HNAC         2.6640     0.7400    -1.2200 hn         1 D2R       0.465300
     34 HNAA         1.7460    -0.7950    -1.7710 hn         1 D2R       0.465300
     35 HNAD        -2.7570     0.4710     0.5740 hn         1 D2R       0.443800
     36 HNAB        -2.3990    -0.5880     1.8630 hn         1 D2R       0.443800
     37 HAI         -1.6890    -5.0540     7.4230 ha         1 D2R       0.148000
     38 HAJ          0.6210    -4.2710     7.6100 ha         1 D2R       0.161000
     39 HAK          2.3770     0.4120     5.1730 h4         1 D2R       0.055100
     40 HAL         -2.7340    -1.3540     5.6170 ha         1 D2R       0.165000
     41 HAM          4.6510    -1.4220     6.3430 hc         1 D2R       0.070700
     42 HAMA         4.1110    -0.0420     7.0510 hc         1 D2R       0.070700
     43 HAN          4.0190    -1.1400     9.4340 hc         1 D2R       0.034700
     44 HANA         5.3690    -0.6800     8.6970 hc         1 D2R       0.034700
     45 HAO          5.4450    -2.8900     7.6350 hc         1 D2R       0.024700
     46 HAOA         4.2810    -3.4890     8.4860 hc         1 D2R       0.024700
     47 HAP         -0.9640    -0.7710     6.6780 hc         1 D2R       0.173200
     48 HAPA         0.3140     0.2030     6.7910 hc         1 D2R       0.173200
     49 CAB         -2.1190    -0.0010     3.6900 c3         1 D2R      -0.085800
     50 CAP         -0.4840    -0.0000     6.0870 c3         1 D2R      -0.293800
     51 OAT         -3.6140    -3.7310     6.3860 os         1 D2R      -0.316900
     52 CAH          1.4690    -1.6850     7.3420 cg         1 D2R      -0.234000
@<TRIPOS>BOND
     1     2     1 ar
     2     1     6 ar
     3     3     2 ar
     4     8     2 1
     5     3     4 ar
     6    20     4 ar
     7     4     5 ar
     8     5    22 ar
     9     5     6 ar
    10     6     9 1
    11    51     7 1
    12     7    27 1
    13     7    28 1
    14     7    29 1
    15    22    49 1
    16    49    30 1
    17    49    31 1
    18    49    32 1
    19     8    33 1
    20     8    34 1
    21     9    35 1
    22     9    36 1
    23    10    21 1
    24    21    11 1
    25    17    12 1
    26    12    52 3
    27    52    24 1
    28    14    13 ar
    29    13    23 ar
    30    13    37 1
    31    24    14 ar
    32    14    38 1
    33    20    15 ar
    34    15    25 ar
    35    15    39 1
    36    26    16 ar
    37    16    23 ar
    38    16    40 1
    39    17    18 1
    40    17    41 1
    41    17    42 1
    42    19    18 1
    43    18    43 1
    44    18    44 1
    45    19    21 1
    46    19    45 1
    47    19    46 1
    48    25    50 1
    49    50    26 1
    50    50    47 1
    51    50    48 1
    52    23    51 1
    53    25    22 ar
    54    24    26 ar
@<TRIPOS>SUBSTRUCTURE
     1 D2R         1 TEMP              0 ****  ****    0 ROOT
