@<TRIPOS>MOLECULE
D2R
   52    55     1     0     0
SMALL
bcc


@<TRIPOS>ATOM
      1 N1           0.0000     0.0000     0.0000 n2         1 D2R      -0.208000
      2 C2           1.3300     0.0000     0.0000 c2         1 D2R      -0.010000
      3 N3           2.0460     0.0000     1.1090 n2         1 D2R      -0.152000
      4 C4           1.4450     0.0000     2.3070 c2         1 D2R       0.059000
      5 C5           0.0290     0.0010     2.3540 c2         1 D2R      -0.238000
      6 C6          -0.6880    -0.0000     1.1330 c2         1 D2R       0.063000
      7 CAA         -3.8550    -5.0810     6.7850 c3         1 D2R       0.023000
      8 NAC          1.9900    -0.0000    -1.2140 nv         1 D2R      -0.003000
      9 NAD         -2.0660    -0.0010     1.1230 nv         1 D2R       0.004000
     10 OAE          5.7950    -2.8390    10.7730 o          1 D2R      -0.621000
     11 OAF          7.3630    -3.0950     9.3430 o          1 D2R      -0.621000
     12 CAG          2.5380    -1.2550     7.5630 c1         1 D2R       0.028000
     13 CAI         -1.4090    -4.0260     7.2290 c2         1 D2R      -0.184000
     14 CAJ         -0.1480    -3.5220     7.4660 c2         1 D2R      -0.046000
     15 CAK          1.5470    -0.0000     4.6120 c2         1 D2R      -0.029000
     16 CAL         -2.0720    -1.9240     6.2580 c2         1 D2R      -0.142000
     17 CAM          3.9700    -1.1140     7.1270 c3         1 D2R      -0.118000
     18 CAN          4.6600    -1.4960     8.6360 c3         1 D2R       0.023000
     19 CAO          4.9820    -2.6710     8.5900 c3         1 D2R      -0.170000
     20 NAQ          2.1450    -0.0000     3.4420 n2         1 D2R      -0.086000
     21 CAU          6.2300    -2.7710     9.4930 c2         1 D2R       0.382000
     22 CAX         -0.6150    -0.0000     3.5970 c2         1 D2R       0.010000
     23 CAY         -2.3730    -3.2310     6.6220 c2         1 D2R       0.079000
     24 CAZ          0.1600    -2.2120     7.0960 c2         1 D2R       0.118000
     25 CBA          0.1620     0.0000     4.7250 c2         1 D2R      -0.046000
     26 CBB         -0.8110    -1.4160     6.4870 c3         1 D2R      -0.116000
     27 HAA         -4.7180    -5.2350     7.4220 h1         1 D2R       0.041000
     28 HAAA        -4.0200    -5.7990     5.9910 h1         1 D2R       0.041000
     29 HAAB        -3.0760    -5.3700     7.4800 h1         1 D2R       0.041000
     30 HAB         -2.3870     0.1900     4.7230 hc         1 D2R       0.067333
     31 HABA        -2.5370    -1.0000     3.6640 hc         1 D2R       0.067333
     32 HABB        -2.6850     0.4110     2.8640 hc         1 D2R       0.067333
     33 HNAC         2.6640     0.7400    -1.2200 hn         1 D2R       0.094500
     34 HNAA         1.7460    -0.7950    -1.7710 hn         1 D2R       0.094500
     35 HNAD        -2.7570     0.4710     0.5740 hn         1 D2R       0.086500
     36 HNAB        -2.3990    -0.5880     1.8630 hn         1 D2R       0.086500
     37 HAI         -1.6890    -5.0540     7.4230 ha         1 D2R       0.133000
     38 HAJ          0.6210    -4.2710     7.6100 ha         1 D2R       0.128000
     39 HAK          2.3770     0.4120     5.1730 h4         1 D2R       0.151000
     40 HAL         -2.7340    -1.3540     5.6170 ha         1 D2R       0.145000
     41 HAM          4.6510    -1.4220     6.3430 hc         1 D2R       0.076500
     42 HAMA         4.1110    -0.0420     7.0510 hc         1 D2R       0.076500
     43 HAN          4.0190    -1.1400     9.4340 hc         1 D2R       0.042000
     44 HANA         5.3690    -0.6800     8.6970 hc         1 D2R       0.042000
     45 HAO          5.4450    -2.8900     7.6350 hc         1 D2R       0.042500
     46 HAOA         4.2810    -3.4890     8.4860 hc         1 D2R       0.042500
     47 HAP         -0.9640    -0.7710     6.6780 DU         1 D2R       0.289000
     48 HAPA         0.3140     0.2030     6.7910 hc         1 D2R       0.074000
     49 CAB         -2.1190    -0.0010     3.6900 c3         1 D2R      -0.138000
     50 CAP         -0.4840    -0.0000     6.0870 c3         1 D2R      -0.349000
     51 OAT         -3.6140    -3.7310     6.3860 os         1 D2R      -0.176000
     52 CAH          1.4690    -1.6850     7.3420 c1         1 D2R      -0.262000
@<TRIPOS>BOND
     1     1     2 1   
     2     1     6 1   
     3     2     3 1   
     4     2     8 1   
     5     3     4 1   
     6     4     5 1   
     7     4    20 1   
     8     5     6 1   
     9     5    22 1   
    10     6     9 1   
    11     7    27 1   
    12     7    28 1   
    13     7    29 1   
    14     7    51 1   
    15     8    33 1   
    16     8    34 1   
    17     9    35 1   
    18     9    36 1   
    19    10    21 1   
    20    11    21 1   
    21    12    17 1   
    22    12    52 1   
    23    13    14 1   
    24    13    23 1   
    25    13    37 1   
    26    14    24 1   
    27    14    38 1   
    28    15    20 1   
    29    15    25 1   
    30    15    39 1   
    31    16    23 1   
    32    16    26 1   
    33    16    40 1   
    34    17    18 1   
    35    17    41 1   
    36    17    42 1   
    37    18    19 1   
    38    18    43 1   
    39    18    44 1   
    40    19    21 1   
    41    19    45 1   
    42    19    46 1   
    43    22    25 1   
    44    22    49 1   
    45    23    51 1   
    46    24    26 1   
    47    24    52 1   
    48    25    50 1   
    49    26    47 1   
    50    26    50 1   
    51    30    49 1   
    52    31    49 1   
    53    32    49 1   
    54    47    50 1   
    55    48    50 1   
@<TRIPOS>SUBSTRUCTURE
     1 D2R         1 TEMP              0 ****  ****    0 ROOT
