@<TRIPOS>MOLECULE
D2S
   28    28     1     0     0
SMALL
bcc


@<TRIPOS>ATOM
      1 C1         -0.8830    0.2530    0.4740 ca        1 D2S     -0.255000
      2 O1          0.2460   -0.6770   -1.3730 oh        1 D2S     -0.246000
      3 S1          2.5290   -0.8290    1.7490 s         1 D2S     -0.540000
      4 C2          0.3140    0.0610   -0.2170 ca        1 D2S      0.133000
      5 S2          2.5700   -2.4730    2.6150 ss        1 D2S      0.830000
      6 C3          1.5310    0.6210    0.2440 ca        1 D2S     -0.201000
      7 O3         -1.9950    1.2640    2.3810 oh        1 D2S     -0.246000
      8 C4          1.5170    1.3870    1.4250 ca        1 D2S      0.002000
      9 C5          0.3290    1.5940    2.1300 ca        1 D2S     -0.201000
     10 C6         -0.8580    1.0230    1.6500 ca        1 D2S      0.133000
     11 C7          5.3050   -4.2920    4.6750 c2        1 D2S     -0.311000
     12 C8          3.9290   -4.2380    4.1170 c2        1 D2S      0.336000
     13 C9          3.8210   -2.9460    3.3570 c2        1 D2S     -0.588000
     14 C10         5.1310   -2.3030    3.5050 c2        1 D2S     -0.137000
     15 C11         5.9760   -3.0630    4.2520 c2        1 D2S     -0.074000
     16 C12         5.8290   -5.2830    5.4270 c2        1 D2S      0.116000
     17 H1         -1.8150   -0.1890    0.0990 ha        1 D2S      0.154000
     18 HO1         1.1500   -0.8130   -1.6950 ho        1 D2S      0.224500
     19 HO3        -2.7350    0.8130    1.9470 ho        1 D2S      0.224500
     20 H4          2.4380    0.5600   -0.3770 ha        1 D2S      0.157000
     21 H5          0.3140    2.1910    3.0510 ha        1 D2S      0.157000
     22 HO5         4.2720   -6.4150    5.4600 ho        1 D2S      0.256000
     23 H10         5.3450   -1.3320    3.0500 ha        1 D2S      0.161000
     24 H11         6.8620   -5.2800    5.8220 h4        1 D2S      0.171000
     25 H9          2.4450    1.8720    1.7680 ha        1 D2S      0.154000
     26 H7          7.0080   -2.8320    4.5210 ha        1 D2S      0.148000
     27 O4          3.0570   -5.0990    4.2600 o         1 D2S     -0.314000
     28 O5          5.1850   -6.4110    5.8060 oh        1 D2S     -0.245000
@<TRIPOS>BOND
     1    1    4 1   
     2    1   10 1   
     3    1   17 1   
     4    2    4 1   
     5    2   18 1   
     6    3    5 1   
     7    4    6 1   
     8    5   13 1   
     9    6    8 1   
    10    6   20 1   
    11    7   10 1   
    12    7   19 1   
    13    8    9 1   
    14    8   25 1   
    15    9   10 1   
    16    9   21 1   
    17   11   12 1   
    18   11   15 1   
    19   11   16 1   
    20   12   13 1   
    21   12   27 1   
    22   13   14 1   
    23   14   15 1   
    24   14   23 1   
    25   15   26 1   
    26   16   24 1   
    27   16   28 1   
    28   22   28 1   
@<TRIPOS>SUBSTRUCTURE
     1 D2S         1 TEMP              0 ****  ****    0 ROOT
