@<TRIPOS>MOLECULE
molecule
   28    29     1     0     0
SMALL
bcc


@<TRIPOS>ATOM
      1 C1           0.0000     0.0000     0.0000 ca         1 D2S      -0.181000
      2 O1           2.0660     0.0000    -1.1770 oh         1 D2S      -0.514100
      3 S1           3.8400    -0.0000     1.2140 ss         1 D2S      -0.079400
      4 C2           1.3850     0.0000     0.0000 ca         1 D2S       0.145600
      5 S2           4.2960     0.0000     3.2130 ss         1 D2S      -0.079400
      6 C3           2.0790     0.0000     1.2090 ca         1 D2S      -0.035100
      7 O3          -2.0540     0.0010     1.2000 oh         1 D2S      -0.519600
      8 C4           1.3800     0.0010     2.4080 ca         1 D2S      -0.111000
      9 C5          -0.0020     0.0000     2.4030 ca         1 D2S      -0.146000
     10 C6          -0.6940     0.0010     1.2020 ca         1 D2S       0.122100
     11 C7           4.4500    -3.4610     5.2680 ca         1 D2S      -0.181000
     12 C8           4.4980    -2.1160     4.9420 ca         1 D2S       0.145600
     13 C9           4.2370    -1.7100     3.6340 ca         1 D2S      -0.035100
     14 C10          3.9310    -2.6550     2.6630 ca         1 D2S      -0.111000
     15 C11          3.8840    -3.9950     2.9940 ca         1 D2S      -0.146000
     16 C12          4.1430    -4.4010     4.2950 ca         1 D2S       0.122100
     17 H1          -0.5420    -0.0150    -0.9380 ha         1 D2S       0.154000
     18 HO1          2.0810     0.8740    -1.5310 ho         1 D2S       0.428000
     19 HO3         -2.3680    -0.8870     1.1610 ho         1 D2S       0.423000
     20 H4           1.9180     0.0010     3.3490 ha         1 D2S       0.165000
     21 H5          -0.5460     0.0010     3.3400 ha         1 D2S       0.148000
     22 HO5          3.2320    -5.9400     4.9250 ho         1 D2S       0.423000
     23 H10          3.7280    -2.3400     1.6460 ha         1 D2S       0.165000
     24 H11          3.6450    -4.7310     2.2360 ha         1 D2S       0.148000
     25 H9           5.7310    -1.1770     6.0330 ho         1 D2S       0.428000
     26 H7           4.6360    -3.7780     6.2870 ha         1 D2S       0.154000
     27 O4           4.7990    -1.1940     5.8950 oh         1 D2S      -0.514100
     28 O5           4.0960    -5.7220     4.6170 oh         1 D2S      -0.519600
@<TRIPOS>BOND
     1     1     4 ar
     2     1    10 ar
     3     1    17 1
     4     2     4 1
     5     2    18 1
     6     3     5 1
     7     3     6 1
     8     4     6 ar
     9     5    13 1
    10     6     8 ar
    11     7    10 1
    12     7    19 1
    13     8     9 ar
    14     8    20 1
    15    27    12 1
    16     9    10 ar
    17     9    21 1
    18    28    16 1
    19    28    22 1
    20    11    12 ar
    21    11    16 ar
    22    12    13 ar
    23    13    14 ar
    24    14    15 ar
    25    14    23 1
    26    15    16 ar
    27    15    24 1
    28    27    25 1
    29    11    26 1
@<TRIPOS>SUBSTRUCTURE
     1 D2S         1 TEMP              0 ****  ****    0 ROOT
