@<TRIPOS>MOLECULE
D2V
   73    75     1     0     0
SMALL
bcc


@<TRIPOS>ATOM
      1 C1B        -0.4500    0.4450    0.2530 c3        1 D2V     -0.090600
      2 C1W         1.0460    0.6410    0.1180 c3        1 D2V     -0.060700
      3 C1C         1.3560    2.1070   -0.1020 c3        1 D2V     -0.090600
      4 C1X         1.7910    0.1110    1.3480 c3        1 D2V     -0.031500
      5 C1D         1.4700   -1.3510    1.6010 c3        1 D2V     -0.087100
      6 C1J         3.2640    0.2670    1.1650 c2        1 D2V     -0.166200
      7 C1K         4.0520    0.9200    2.0230 c2        1 D2V     -0.168200
      8 C1Y         5.5240    1.0880    1.8250 c3        1 D2V     -0.026500
      9 C1E         5.8020    2.5180    1.3960 c3        1 D2V     -0.087100
     10 C2B         6.2580    0.7240    3.1130 c3        1 D2V     -0.051700
     11 C1Q         5.8660   -0.6860    3.5970 c3        1 D2V     -0.078400
     12 C1P         7.1230   -1.3490    4.1630 c3        1 D2V     -0.073400
     13 C2A         8.1360   -0.2180    4.2630 c3        1 D2V     -0.036500
     14 C2C         7.8010    0.6950    3.0500 c3        1 D2V     -0.041000
     15 C1F         8.2790    0.0790    1.7470 c3        1 D2V     -0.082100
     16 C1R         8.4910    2.0280    3.2970 c3        1 D2V     -0.066400
     17 C1L         9.9900    1.8380    3.4440 c3        1 D2V     -0.073400
     18 C1M        10.3890    0.7680    4.4480 c3        1 D2V     -0.044200
     19 C1V         9.5950   -0.4930    4.3340 c2        1 D2V     -0.080400
     20 C1I        10.1090   -1.7350    4.3720 ce        1 D2V     -0.149000
     21 C1H        11.5130   -2.0670    4.4380 ce        1 D2V     -0.118000
     22 C1U        12.0090   -3.2510    4.8530 cf        1 D2V     -0.074200
     23 C1S        13.4810   -3.4960    4.8500 c3        1 D2V     -0.075200
     24 C1Z        13.8220   -4.8450    4.2170 c3        1 D2V      0.144100
     25 O1G        15.2030   -5.1430    4.3820 oh        1 D2V     -0.599800
     26 C1O        13.0500   -5.9730    4.8910 c3        1 D2V     -0.072400
     27 C1N        11.5600   -5.7130    4.8110 c3        1 D2V     -0.041200
     28 C1T        11.1940   -4.3650    5.3420 cf        1 D2V     -0.077200
     29 C1A        10.1900   -4.2030    6.2120 c2        1 D2V     -0.211000
     30 H1B        -0.8170    0.8690    1.2180 hc        1 D2V      0.034200
     31 H1BA       -0.9820    0.9580   -0.5840 hc        1 D2V      0.034200
     32 H1BB       -0.7100   -0.6410    0.2210 hc        1 D2V      0.034200
     33 H1W         1.4020    0.0620   -0.7810 hc        1 D2V      0.045700
     34 H1C         0.8740    2.4670   -1.0430 hc        1 D2V      0.034200
     35 H1CA        0.9730    2.7210    0.7480 hc        1 D2V      0.034200
     36 H1CB        2.4590    2.2650   -0.1830 hc        1 D2V      0.034200
     37 H1X         1.4550    0.7090    2.2420 hc        1 D2V      0.050700
     38 H1D         0.4070   -1.4650    1.9240 hc        1 D2V      0.035033
     39 H1DA        1.6280   -1.9550    0.6750 hc        1 D2V      0.035033
     40 H1DB        2.1290   -1.7560    2.4060 hc        1 D2V      0.035033
     41 H1J         3.6710   -0.2100    0.2580 ha        1 D2V      0.121000
     42 H1K         3.6470    1.3960    2.9310 ha        1 D2V      0.121000
     43 H1Y         5.8680    0.3980    1.0030 hc        1 D2V      0.054700
     44 H1E         5.7060    3.2180    2.2600 hc        1 D2V      0.035700
     45 H1EA        6.8340    2.6050    0.9780 hc        1 D2V      0.035700
     46 H1EB        5.0760    2.8290    0.6060 hc        1 D2V      0.035700
     47 H2B         5.9630    1.4720    3.9000 hc        1 D2V      0.046700
     48 H1Q         5.0690   -0.6120    4.3770 hc        1 D2V      0.044700
     49 H1QA        5.4550   -1.2910    2.7510 hc        1 D2V      0.044700
     50 H1P         7.4840   -2.1540    3.4750 hc        1 D2V      0.045200
     51 H1PA        6.9300   -1.8120    5.1610 hc        1 D2V      0.045200
     52 H2A         7.8830    0.3640    5.2010 hc        1 D2V      0.054700
     53 H1F         7.6890   -0.8400    1.5110 hc        1 D2V      0.037700
     54 H1FA        8.1630    0.8080    0.9080 hc        1 D2V      0.037700
     55 H1FB        9.3560   -0.2100    1.8210 hc        1 D2V      0.037700
     56 H1R         8.0750    2.4960    4.2280 hc        1 D2V      0.042200
     57 H1RA        8.2900    2.7320    2.4490 hc        1 D2V      0.042200
     58 H1L        10.4500    2.8120    3.7600 hc        1 D2V      0.040200
     59 H1LA       10.4240    1.5790    2.4420 hc        1 D2V      0.040200
     60 H1M        10.2370    1.1690    5.4890 hc        1 D2V      0.047200
     61 H1MA       11.4860    0.5660    4.3320 hc        1 D2V      0.047200
     62 H1I         9.4230   -2.6030    4.3470 ha        1 D2V      0.133000
     63 H1H        12.2170   -1.2890    4.0910 ha        1 D2V      0.122000
     64 H1S        13.8550   -3.4880    5.9090 hc        1 D2V      0.054200
     65 H1SA       14.0200   -2.6820    4.2970 hc        1 D2V      0.054200
     66 H1Z        13.5790   -4.8180    3.1170 h1        1 D2V      0.036700
     67 HO1G       15.6940   -4.4090    3.9950 ho        1 D2V      0.398000
     68 H1O        13.2980   -6.9430    4.3890 hc        1 D2V      0.057700
     69 H1OA       13.3750   -6.0530    5.9600 hc        1 D2V      0.057700
     70 H1N        11.0170   -6.5160    5.3760 hc        1 D2V      0.049700
     71 H1NA       11.2270   -5.7740    3.7390 hc        1 D2V      0.049700
     72 H1A         9.9100   -3.2190    6.6090 ha        1 D2V      0.117500
     73 H1AA        9.5950   -5.0480    6.5830 ha        1 D2V      0.117500
@<TRIPOS>BOND
     1    1    2 1   
     2    1   30 1   
     3    1   31 1   
     4    1   32 1   
     5    2    3 1   
     6    2    4 1   
     7    2   33 1   
     8    3   34 1   
     9    3   35 1   
    10    3   36 1   
    11    4    5 1   
    12    4    6 1   
    13    4   37 1   
    14    5   38 1   
    15    5   39 1   
    16    5   40 1   
    17    6    7 2   
    18    6   41 1   
    19    7    8 1   
    20    7   42 1   
    21    8    9 1   
    22    8   10 1   
    23    8   43 1   
    24    9   44 1   
    25    9   45 1   
    26    9   46 1   
    27   10   11 1   
    28   10   14 1   
    29   10   47 1   
    30   11   12 1   
    31   11   48 1   
    32   11   49 1   
    33   12   13 1   
    34   12   50 1   
    35   12   51 1   
    36   13   14 1   
    37   13   19 1   
    38   13   52 1   
    39   14   15 1   
    40   14   16 1   
    41   15   53 1   
    42   15   54 1   
    43   15   55 1   
    44   16   17 1   
    45   16   56 1   
    46   16   57 1   
    47   17   18 1   
    48   17   58 1   
    49   17   59 1   
    50   18   19 1   
    51   18   60 1   
    52   18   61 1   
    53   19   20 2   
    54   20   21 1   
    55   20   62 1   
    56   21   22 2   
    57   21   63 1   
    58   22   23 1   
    59   22   28 1   
    60   23   24 1   
    61   23   64 1   
    62   23   65 1   
    63   24   25 1   
    64   24   26 1   
    65   24   66 1   
    66   25   67 1   
    67   26   27 1   
    68   26   68 1   
    69   26   69 1   
    70   27   28 1   
    71   27   70 1   
    72   27   71 1   
    73   28   29 2   
    74   29   72 1   
    75   29   73 1   
@<TRIPOS>SUBSTRUCTURE
     1 D2V         1 TEMP              0 ****  ****    0 ROOT
