@<TRIPOS>MOLECULE
molecule
   73    75     1     0     0
SMALL
bcc


@<TRIPOS>ATOM
      1 C1B          0.0000     0.0000     0.0000 c3         1 D2V      -0.087600
      2 C1W          1.5310     0.0000     0.0000 c3         1 D2V      -0.068700
      3 C1C          2.0400     1.2490    -0.7210 c3         1 D2V      -0.087600
      4 C1X          2.0400     0.0000     1.4420 c3         1 D2V      -0.034500
      5 C1D          1.5290    -1.2490     2.1640 c3         1 D2V      -0.085100
      6 C1J          3.5470    -0.0010     1.4420 c2         1 D2V      -0.171200
      7 C1K          4.2020     0.9820     2.0090 c2         1 D2V      -0.170200
      8 C1Y          5.7090     0.9810     2.0090 c3         1 D2V      -0.037500
      9 C1E          6.2200     2.2300     1.2870 c3         1 D2V      -0.088100
     10 C2B          6.2200     0.9810     3.4510 c3         1 D2V      -0.050700
     11 C1Q          5.7430    -0.2960     4.1920 c3         1 D2V      -0.079400
     12 C1P          7.0270    -1.0080     4.7050 c3         1 D2V      -0.078400
     13 C2A          8.0370     0.1390     4.7930 c3         1 D2V      -0.034500
     14 C2C          7.7380     0.9080     3.4750 c3         1 D2V      -0.061000
     15 C1F          8.2220     0.0760     2.2860 c3         1 D2V      -0.092100
     16 C1R          8.5190     2.2010     3.5140 c3         1 D2V      -0.066400
     17 C1L         10.0120     1.8460     3.4190 c3         1 D2V      -0.078400
     18 C1M         10.4510     0.9330     4.5630 c3         1 D2V      -0.045200
     19 C1V          9.4880    -0.2340     4.7200 c2         1 D2V      -0.093400
     20 C1I          9.9050    -1.4990     4.7880 ce         1 D2V      -0.163000
     21 C1H         11.3340    -1.8040     4.7130 ce         1 D2V      -0.123000
     22 C1U         11.7560    -3.0840     4.7820 cf         1 D2V      -0.090200
     23 C1S         13.2260    -3.4420     4.7060 c3         1 D2V      -0.039200
     24 C1Z         13.3910    -4.6040     3.7230 c3         1 D2V       0.149100
     25 O1G         14.7650    -4.9950     3.6730 oh         1 D2V      -0.607800
     26 C1O         12.5420    -5.7920     4.1780 c3         1 D2V      -0.092400
     27 C1N         11.0550    -5.4330     4.0830 c3         1 D2V      -0.037200
     28 C1T         10.8060    -4.2050     4.9420 cf         1 D2V      -0.084200
     29 C1A          9.7820    -4.1370     5.7930 c2         1 D2V      -0.219000
     30 H1B         -0.3610    -0.9960     0.2240 hc         1 D2V       0.033700
     31 H1BA        -0.3610     0.6920     0.7510 hc         1 D2V       0.033700
     32 H1BB        -0.3610     0.3040    -0.9750 hc         1 D2V       0.033700
     33 H1W          1.8920    -0.8850    -0.5110 hc         1 D2V       0.049700
     34 H1C          1.4420     1.4230    -1.6080 hc         1 D2V       0.033700
     35 H1CA         3.0750     1.1040    -1.0070 hc         1 D2V       0.033700
     36 H1CB         1.9640     2.1040    -0.0610 hc         1 D2V       0.033700
     37 H1X          1.6790     0.8850     1.9530 hc         1 D2V       0.053700
     38 H1D          2.2510    -1.5540     2.9120 hc         1 D2V       0.035033
     39 H1DA         0.5840    -1.0260     2.6450 hc         1 D2V       0.035033
     40 H1DB         1.3900    -2.0490     1.4480 hc         1 D2V       0.035033
     41 H1J          4.0890    -0.8140     0.9740 ha         1 D2V       0.124000
     42 H1K          3.6610     1.7950     2.4780 ha         1 D2V       0.124000
     43 H1Y          6.0700     0.0970     1.4990 hc         1 D2V       0.061700
     44 H1E          5.4600     2.5880     0.6030 hc         1 D2V       0.036700
     45 H1EA         6.4440     3.0010     2.0140 hc         1 D2V       0.036700
     46 H1EB         7.1180     1.9850     0.7330 hc         1 D2V       0.036700
     47 H2B          5.8800     1.8660     3.9760 hc         1 D2V       0.054700
     48 H1Q          5.2080    -0.9430     3.5080 hc         1 D2V       0.046200
     49 H1QA         5.1110    -0.0240     5.0290 hc         1 D2V       0.046200
     50 H1P          6.8570    -1.4440     5.6820 hc         1 D2V       0.047700
     51 H1PA         7.3580    -1.7560     3.9950 hc         1 D2V       0.047700
     52 H2A          7.8400     0.7640     5.6560 hc         1 D2V       0.066700
     53 H1F          8.3810     0.7240     1.4330 hc         1 D2V       0.040367
     54 H1FA         7.4760    -0.6690     2.0390 hc         1 D2V       0.040367
     55 H1FB         9.1520    -0.4160     2.5440 hc         1 D2V       0.040367
     56 H1R          8.3240     2.7190     4.4460 hc         1 D2V       0.045200
     57 H1RA         8.2370     2.8250     2.6750 hc         1 D2V       0.045200
     58 H1L         10.5940     2.7590     3.4550 hc         1 D2V       0.042700
     59 H1LA        10.1940     1.3410     2.4780 hc         1 D2V       0.042700
     60 H1M         11.4420     0.5500     4.3520 hc         1 D2V       0.049200
     61 H1MA        10.4710     1.5030     5.4840 hc         1 D2V       0.049200
     62 H1I          9.1860    -2.3000     4.9110 ha         1 D2V       0.148000
     63 H1H         12.0540    -1.0020     4.6000 ha         1 D2V       0.133000
     64 H1S         13.7910    -2.5860     4.3550 hc         1 D2V       0.059200
     65 H1SA        13.5790    -3.7410     5.6860 hc         1 D2V       0.059200
     66 H1Z         13.0660    -4.2890     2.7390 h1         1 D2V       0.032700
     67 HO1G        15.0580    -5.0010     2.7770 ho         1 D2V       0.400000
     68 H1O         12.7870    -6.0360     5.2050 hc         1 D2V       0.052700
     69 H1OA        12.7470    -6.6440     3.5410 hc         1 D2V       0.052700
     70 H1N         10.4580    -6.2600     4.4480 hc         1 D2V       0.050200
     71 H1NA        10.7980    -5.2160     3.0530 hc         1 D2V       0.050200
     72 H1A          9.1010    -4.9740     5.8880 ha         1 D2V       0.121000
     73 H1AA         9.6310    -3.2450     6.3880 ha         1 D2V       0.121000
@<TRIPOS>BOND
     1     1     2 1
     2     2     3 1
     3     2     4 1
     4     4     5 1
     5     4     6 1
     6     6     7 2
     7     7     8 1
     8     8     9 1
     9     8    10 1
    10    10    11 1
    11    10    14 1
    12    11    12 1
    13    12    13 1
    14    13    14 1
    15    13    19 1
    16    14    15 1
    17    14    16 1
    18    16    17 1
    19    17    18 1
    20    18    19 1
    21    19    20 2
    22    20    21 1
    23    21    22 2
    24    22    23 1
    25    22    28 1
    26    23    24 1
    27    24    25 1
    28    24    26 1
    29    26    27 1
    30    27    28 1
    31    28    29 2
    32     1    30 1
    33     1    31 1
    34     1    32 1
    35     2    33 1
    36     3    34 1
    37     3    35 1
    38     3    36 1
    39     4    37 1
    40     5    38 1
    41     5    39 1
    42     5    40 1
    43     6    41 1
    44     7    42 1
    45     8    43 1
    46     9    44 1
    47     9    45 1
    48     9    46 1
    49    10    47 1
    50    11    48 1
    51    11    49 1
    52    12    50 1
    53    12    51 1
    54    13    52 1
    55    15    53 1
    56    15    54 1
    57    15    55 1
    58    16    56 1
    59    16    57 1
    60    17    58 1
    61    17    59 1
    62    18    60 1
    63    18    61 1
    64    20    62 1
    65    21    63 1
    66    23    64 1
    67    23    65 1
    68    24    66 1
    69    25    67 1
    70    26    68 1
    71    26    69 1
    72    27    70 1
    73    27    71 1
    74    29    72 1
    75    29    73 1
@<TRIPOS>SUBSTRUCTURE
     1 D2V         1 TEMP              0 ****  ****    0 ROOT
