@<TRIPOS>MOLECULE
D2W
   63    66     1     0     0
SMALL
bcc


@<TRIPOS>ATOM
      1 O14          0.0000     0.0000     0.0000 o          1 D2W      -0.657100
      2 C13          1.2150     0.0000     0.0000 c          1 D2W       0.606700
      3 C15          1.9540     0.0000     1.2780 ca         1 D2W      -0.208600
      4 C28          1.2570    -0.0000     2.4890 ca         1 D2W      -0.013500
      5 C27          1.9490    -0.0010     3.6800 ca         1 D2W      -0.193000
      6 C26          3.3390    -0.0020     3.6780 ca         1 D2W       0.178100
      7 O29          4.0170    -0.0030     4.8530 os         1 D2W      -0.283900
      8 C30          5.4440    -0.0030     4.7780 c3         1 D2W       0.196400
      9 C31          6.0290    -0.0050     6.1920 c3         1 D2W       0.147800
     10 N32          5.6750    -1.2600     6.8680 n3         1 D2W      -0.535600
     11 C34          6.3240    -2.4080     6.2200 c3         1 D2W       0.180600
     12 C33          6.0110    -1.2020     8.2960 c3         1 D2W       0.180600
     13 C25          4.0360    -0.0020     2.4740 ca         1 D2W      -0.193000
     14 C24          3.3510    -0.0060     1.2800 ca         1 D2W      -0.013500
     15 N12          1.8900    -0.0050    -1.1670 ns         1 D2W      -0.201900
     16 C11          1.1570    -0.0110    -2.4360 c3         1 D2W       0.058000
     17 C9           2.1470     0.1060    -3.5970 c3         1 D2W       0.109100
     18 C8           1.3810     0.1730    -4.9250 c3         1 D2W       0.180400
     19 O7           2.3360     0.2680    -5.9880 os         1 D2W      -0.297900
     20 C6           3.3930    -0.5880    -5.9390 ca         1 D2W       0.063100
     21 C3           4.1460    -0.8050    -7.0830 ca         1 D2W      -0.095000
     22 C2           5.2260    -1.6690    -7.0560 ca         1 D2W      -0.105000
     23 O10          2.9960    -1.0470    -3.6270 os         1 D2W      -0.279900
     24 C5           3.7240    -1.2410    -4.7590 ca         1 D2W       0.100100
     25 C4           4.8170    -2.1120    -4.7310 cp         1 D2W      -0.153500
     26 C1           5.5660    -2.3210    -5.8880 ca         1 D2W      -0.088000
     27 C16          5.1790    -2.8110    -3.4750 cp         1 D2W       0.486800
     28 N21          4.2340    -3.4120    -2.7600 nb         1 D2W      -0.638000
     29 C20          4.5160    -4.0450    -1.6360 ca         1 D2W       0.623600
     30 O22          3.5210    -4.6460    -0.9370 os         1 D2W      -0.431100
     31 C23          2.1870    -4.4580    -1.4150 c3         1 D2W       0.251700
     32 C19          5.8210    -4.1020    -1.1610 ca         1 D2W      -0.256300
     33 C18          6.8330    -3.4870    -1.8780 ca         1 D2W      -0.035000
     34 C17          6.5070    -2.8360    -3.0570 ca         1 D2W      -0.260300
     35 H1           0.1730     0.0010     2.4920 ha         1 D2W       0.113000
     36 H2           1.4100    -0.0010     4.6200 ha         1 D2W       0.121500
     37 H3           5.7780     0.8810     4.2500 h1         1 D2W       0.004700
     38 H4           5.7780    -0.8880     4.2490 h1         1 D2W       0.004700
     39 H5           5.6270     0.8320     6.7500 h1         1 D2W       0.018200
     40 H6           7.1080     0.0830     6.1360 h1         1 D2W       0.018200
     41 H8           5.6820    -2.7910     5.4360 h1         1 D2W       0.002033
     42 H9           6.5010    -3.1850     6.9540 h1         1 D2W       0.002033
     43 H10          7.2690    -2.0940     5.7920 h1         1 D2W       0.002033
     44 H11          5.6770    -2.1100     8.7830 h1         1 D2W       0.002033
     45 H12          5.5210    -0.3490     8.7480 h1         1 D2W       0.002033
     46 H13          7.0840    -1.1040     8.4100 h1         1 D2W       0.002033
     47 H14          5.1190    -0.0040     2.4770 ha         1 D2W       0.121500
     48 H15          3.8940    -0.0050     0.3430 ha         1 D2W       0.113000
     49 H16          2.8890     0.0510    -1.1680 hn         1 D2W       0.187500
     50 H17          0.6010    -0.9360    -2.5280 h1         1 D2W       0.036700
     51 H18          0.4710     0.8270    -2.4610 h1         1 D2W       0.036700
     52 H19          2.7500     0.9990    -3.4800 h1         1 D2W       0.031700
     53 H20          0.7580     1.0600    -4.9290 h1         1 D2W       0.032200
     54 H21          0.8050    -0.7360    -5.0470 h1         1 D2W       0.032200
     55 H22          3.8850    -0.2980    -8.0040 ha         1 D2W       0.116000
     56 H23          5.8090    -1.8320    -7.9540 ha         1 D2W       0.108000
     57 H24          6.4130    -2.9960    -5.8710 ha         1 D2W       0.112000
     58 H25          2.1250    -4.7790    -2.4480 h1         1 D2W       0.002367
     59 H26          1.5020    -5.0440    -0.8140 h1         1 D2W       0.002367
     60 H27          1.9230    -3.4100    -1.3460 h1         1 D2W       0.002367
     61 H28          6.0440    -4.6220    -0.2360 ha         1 D2W       0.124000
     62 H29          7.8580    -3.5190    -1.5290 ha         1 D2W       0.107000
     63 H30          7.2740    -2.3440    -3.6420 ha         1 D2W       0.121000
@<TRIPOS>BOND
     1     1     2 2   
     2     2     3 1   
     3     2    15 1   
     4     3     4 ar  
     5     3    14 ar  
     6     4     5 ar  
     7     4    35 1   
     8     5     6 ar  
     9     5    36 1   
    10     6     7 1   
    11     6    13 ar  
    12     7     8 1   
    13     8     9 1   
    14     8    37 1   
    15     8    38 1   
    16     9    10 1   
    17     9    39 1   
    18     9    40 1   
    19    10    11 1   
    20    10    12 1   
    21    11    41 1   
    22    11    42 1   
    23    11    43 1   
    24    12    44 1   
    25    12    45 1   
    26    12    46 1   
    27    13    14 ar  
    28    13    47 1   
    29    14    48 1   
    30    15    16 1   
    31    15    49 1   
    32    16    17 1   
    33    16    50 1   
    34    16    51 1   
    35    17    18 1   
    36    17    23 1   
    37    17    52 1   
    38    18    19 1   
    39    18    53 1   
    40    18    54 1   
    41    19    20 1   
    42    20    21 ar  
    43    20    24 ar  
    44    21    22 ar  
    45    21    55 1   
    46    22    26 ar  
    47    22    56 1   
    48    23    24 1   
    49    24    25 ar  
    50    25    26 ar  
    51    25    27 1   
    52    26    57 1   
    53    27    28 ar  
    54    27    34 ar  
    55    28    29 ar  
    56    29    30 1   
    57    29    32 ar  
    58    30    31 1   
    59    31    58 1   
    60    31    59 1   
    61    31    60 1   
    62    32    33 ar  
    63    32    61 1   
    64    33    34 ar  
    65    33    62 1   
    66    34    63 1   
@<TRIPOS>SUBSTRUCTURE
     1 D2W         1 TEMP              0 ****  ****    0 ROOT
