@<TRIPOS>MOLECULE
molecule
   63    66     1     0     0
SMALL
bcc


@<TRIPOS>ATOM
      1 O14          0.0000     0.0000     0.0000 o          1 D2W      -0.618100
      2 C13          1.2150     0.0000     0.0000 c          1 D2W       0.680700
      3 C15          1.9540     0.0000     1.2780 ca         1 D2W      -0.194600
      4 C28          1.2570    -0.0000     2.4890 ca         1 D2W      -0.045500
      5 C27          1.9490    -0.0010     3.6800 ca         1 D2W      -0.205000
      6 C26          3.3390    -0.0020     3.6780 ca         1 D2W       0.169100
      7 O29          4.0170    -0.0030     4.8530 os         1 D2W      -0.305900
      8 C30          5.4440    -0.0030     4.7780 c3         1 D2W       0.139400
      9 C31          6.0290    -0.0050     6.1920 c3         1 D2W       0.162800
     10 N32          5.6750    -1.2600     6.8680 n3         1 D2W      -0.721600
     11 C34          6.3240    -2.4080     6.2200 c3         1 D2W       0.149100
     12 C33          6.0110    -1.2020     8.2960 c3         1 D2W       0.149100
     13 C25          4.0360    -0.0020     2.4740 ca         1 D2W      -0.205000
     14 C24          3.3510    -0.0060     1.2800 ca         1 D2W      -0.045500
     15 N12          1.8900    -0.0050    -1.1670 ns         1 D2W      -0.582900
     16 C11          1.1570    -0.0110    -2.4360 c3         1 D2W       0.126000
     17 C9           2.1470     0.1060    -3.5970 c3         1 D2W       0.079100
     18 C8           1.3810     0.1730    -4.9250 c3         1 D2W       0.109400
     19 O7           2.3360     0.2680    -5.9880 os         1 D2W      -0.320900
     20 C6           3.3930    -0.5880    -5.9390 ca         1 D2W       0.056100
     21 C3           4.1460    -0.8050    -7.0830 ca         1 D2W      -0.113000
     22 C2           5.2260    -1.6690    -7.0560 ca         1 D2W      -0.134000
     23 O10          2.9960    -1.0470    -3.6270 os         1 D2W      -0.300900
     24 C5           3.7240    -1.2410    -4.7590 ca         1 D2W       0.095100
     25 C4           4.8170    -2.1120    -4.7310 cp         1 D2W      -0.141500
     26 C1           5.5660    -2.3210    -5.8880 ca         1 D2W      -0.111000
     27 C16          5.1790    -2.8110    -3.4750 cp         1 D2W       0.526800
     28 N21          4.2340    -3.4120    -2.7600 nb         1 D2W      -0.748000
     29 C20          4.5160    -4.0450    -1.6360 ca         1 D2W       0.661600
     30 O22          3.5210    -4.6460    -0.9370 os         1 D2W      -0.443100
     31 C23          2.1870    -4.4580    -1.4150 c3         1 D2W       0.135700
     32 C19          5.8210    -4.1020    -1.1610 ca         1 D2W      -0.273300
     33 C18          6.8330    -3.4870    -1.8780 ca         1 D2W      -0.068000
     34 C17          6.5070    -2.8360    -3.0570 ca         1 D2W      -0.284300
     35 H1           0.1730     0.0010     2.4920 ha         1 D2W       0.144000
     36 H2           1.4100    -0.0010     4.6200 ha         1 D2W       0.144000
     37 H3           5.7780     0.8810     4.2500 h1         1 D2W       0.038200
     38 H4           5.7780    -0.8880     4.2490 h1         1 D2W       0.038200
     39 H5           5.6270     0.8320     6.7500 h1         1 D2W       0.047200
     40 H6           7.1080     0.0830     6.1360 h1         1 D2W       0.047200
     41 H8           5.6820    -2.7910     5.4360 h1         1 D2W       0.033367
     42 H9           6.5010    -3.1850     6.9540 h1         1 D2W       0.033367
     43 H10          7.2690    -2.0940     5.7920 h1         1 D2W       0.033367
     44 H11          5.6770    -2.1100     8.7830 h1         1 D2W       0.033367
     45 H12          5.5210    -0.3490     8.7480 h1         1 D2W       0.033367
     46 H13          7.0840    -1.1040     8.4100 h1         1 D2W       0.033367
     47 H14          5.1190    -0.0040     2.4770 ha         1 D2W       0.144000
     48 H15          3.8940    -0.0050     0.3430 ha         1 D2W       0.144000
     49 H16          2.8890     0.0510    -1.1680 hn         1 D2W       0.324500
     50 H17          0.6010    -0.9360    -2.5280 h1         1 D2W       0.066200
     51 H18          0.4710     0.8270    -2.4610 h1         1 D2W       0.066200
     52 H19          2.7500     0.9990    -3.4800 h1         1 D2W       0.065700
     53 H20          0.7580     1.0600    -4.9290 h1         1 D2W       0.075200
     54 H21          0.8050    -0.7360    -5.0470 h1         1 D2W       0.075200
     55 H22          3.8850    -0.2980    -8.0040 ha         1 D2W       0.147000
     56 H23          5.8090    -1.8320    -7.9540 ha         1 D2W       0.139000
     57 H24          6.4130    -2.9960    -5.8710 ha         1 D2W       0.141000
     58 H25          2.1250    -4.7790    -2.4480 h1         1 D2W       0.048700
     59 H26          1.5020    -5.0440    -0.8140 h1         1 D2W       0.048700
     60 H27          1.9230    -3.4100    -1.3460 h1         1 D2W       0.048700
     61 H28          6.0440    -4.6220    -0.2360 ha         1 D2W       0.149000
     62 H29          7.8580    -3.5190    -1.5290 ha         1 D2W       0.140000
     63 H30          7.2740    -2.3440    -3.6420 ha         1 D2W       0.141000
@<TRIPOS>BOND
     1    21    22 ar
     2    21    20 ar
     3    22    26 ar
     4    19    20 1
     5    19    18 1
     6    20    24 ar
     7    13    14 ar
     8    13     6 ar
     9    18    17 1
    10    26    25 ar
    11    14     3 ar
    12     7     6 1
    13     7     8 1
    14    24    25 ar
    15    24    23 1
    16     6     5 ar
    17    25    27 1
    18     8     9 1
    19    12    10 1
    20     1     2 2
    21     3     2 1
    22     3     4 ar
    23    23    17 1
    24     2    15 1
    25    17    16 1
    26     9    10 1
    27    34    27 ar
    28    34    33 ar
    29     5     4 ar
    30    27    28 ar
    31    15    16 1
    32    10    11 1
    33    33    32 ar
    34    28    29 ar
    35    32    29 ar
    36    29    30 1
    37    30    31 1
    38     4    35 1
    39     5    36 1
    40     8    37 1
    41     8    38 1
    42     9    39 1
    43     9    40 1
    44    11    41 1
    45    11    42 1
    46    11    43 1
    47    12    44 1
    48    12    45 1
    49    12    46 1
    50    13    47 1
    51    14    48 1
    52    15    49 1
    53    16    50 1
    54    16    51 1
    55    17    52 1
    56    18    53 1
    57    18    54 1
    58    21    55 1
    59    22    56 1
    60    26    57 1
    61    31    58 1
    62    31    59 1
    63    31    60 1
    64    32    61 1
    65    33    62 1
    66    34    63 1
@<TRIPOS>SUBSTRUCTURE
     1 D2W         1 TEMP              0 ****  ****    0 ROOT
