@<TRIPOS>MOLECULE
molecule
   41    42     1     0     0
SMALL
bcc


@<TRIPOS>ATOM
      1 OAJ          0.0000     0.0000     0.0000 o          1 D2X      -0.675167
      2 PAW          1.6100     0.0000     0.0000 p5         1 D2X       1.314900
      3 OAZ          2.1460     0.0000     1.5170 o          1 D2X      -0.675167
      4 OAX          2.1040    -1.2090    -0.6980 o          1 D2X      -0.675167
      5 OAV          2.1480     1.3140    -0.7590 os         1 D2X      -0.714800
      6 PAU          3.5460     1.7150    -1.4480 p5         1 D2X       1.429800
      7 OAI          4.6330     2.0410    -0.3060 o          1 D2X      -0.840000
      8 OAY          4.0270     0.5880    -2.2790 o          1 D2X      -0.840000
      9 OAT          3.3350     3.0130    -2.3760 os         1 D2X      -0.606200
     10 CAS          4.3660     3.5550    -3.2030 c3         1 D2X       0.236400
     11 CAR          3.8340     4.7810    -3.9470 c3         1 D2X      -0.010100
     12 CAQ          4.9220     5.3520    -4.8200 cc         1 D2X      -0.071400
     13 CAH          5.1640     5.0200    -6.0920 cd         1 D2X      -0.084600
     14 CAB          4.3480     3.9960    -6.8360 c3         1 D2X      -0.032800
     15 SAP          6.0940     6.5790    -4.3470 ss         1 D2X      -0.088800
     16 CAO          6.7980     6.5190    -5.9030 cc         1 D2X      -0.282400
     17 NAG          6.1750     5.6620    -6.6410 na         1 D2X       0.050900
     18 CAF          6.5730     5.4150    -8.0290 c3         1 D2X       0.091600
     19 CAE          5.7360     6.2660    -8.9490 ca         1 D2X      -0.396900
     20 CAN          4.5950     5.7590    -9.5400 ca         1 D2X       0.485200
     21 NAM          3.8830     6.5350   -10.3430 nb         1 D2X      -0.755000
     22 CAL          4.2500     7.7780   -10.5850 ca         1 D2X       0.693300
     23 CAK          3.4100     8.6240   -11.5070 c3         1 D2X      -0.118400
     24 NAC          5.3320     8.3010   -10.0440 nb         1 D2X      -0.817000
     25 CAD          6.0930     7.5850    -9.2240 ca         1 D2X       0.687600
     26 OAA          7.2040     8.1280    -8.6690 oh         1 D2X      -0.602300
     27 HAS          4.6830     2.8070    -3.9200 h1         1 D2X       0.027200
     28 HASA         5.2090     3.8440    -2.5870 h1         1 D2X       0.027200
     29 HAR          2.9910     4.4920    -4.5630 hc         1 D2X       0.056700
     30 HARA         3.5170     5.5290    -3.2300 hc         1 D2X       0.056700
     31 HAB          4.0740     3.1930    -6.1630 hc         1 D2X       0.056367
     32 HABA         3.4510     4.4630    -7.2250 hc         1 D2X       0.056367
     33 HABB         4.9310     3.5960    -7.6570 hc         1 D2X       0.056367
     34 HAO          7.6430     7.1150    -6.2250 h5         1 D2X       0.186000
     35 HAF          7.6190     5.6680    -8.1550 h1         1 D2X       0.071700
     36 HAFA         6.4230     4.3690    -8.2680 h1         1 D2X       0.071700
     37 HAN          4.2850     4.7390    -9.3470 h4         1 D2X       0.040100
     38 HAK          3.5770     9.6710   -11.2880 hc         1 D2X       0.054033
     39 HAKA         3.6860     8.4210   -12.5350 hc         1 D2X       0.054033
     40 HAKB         2.3630     8.3860   -11.3610 hc         1 D2X       0.054033
     41 H19          7.5580     8.7820    -9.2490 ho         1 D2X       0.432000
@<TRIPOS>BOND
     1     1     2 1
     2     2     3 1
     3     4     2 1
     4     5     2 1
     5     6     5 1
     6     6     7 1
     7     8     6 1
     8     9     6 1
     9     9    10 1
    10    10    11 1
    11    10    27 1
    12    10    28 1
    13    11    29 1
    14    11    30 1
    15    12    11 1
    16    12    15 1
    17    13    12 2
    18    14    13 1
    19    14    31 1
    20    14    32 1
    21    14    33 1
    22    16    15 1
    23    16    34 1
    24    17    13 1
    25    17    16 2
    26    18    17 1
    27    18    35 1
    28    18    36 1
    29    19    18 1
    30    19    20 ar
    31    20    37 1
    32    21    20 ar
    33    22    21 ar
    34    23    22 1
    35    23    38 1
    36    23    39 1
    37    23    40 1
    38    24    22 ar
    39    24    25 ar
    40    25    19 ar
    41    26    25 1
    42    26    41 1
@<TRIPOS>SUBSTRUCTURE
     1 D2X         1 TEMP              0 ****  ****    0 ROOT
