@<TRIPOS>MOLECULE
D2Z
   51    53     1     0     0
SMALL
bcc


@<TRIPOS>ATOM
      1 C1           0.0000     0.0000     0.0000 ca         1 D2Z      -0.093000
      2 C2           1.3820     0.0000     0.0000 ca         1 D2Z      -0.101000
      3 C3           2.0760     0.0000     1.1950 ca         1 D2Z      -0.105000
      4 C4          -0.6930     0.0010     1.1960 ca         1 D2Z      -0.096000
      5 C5          -0.0040    -0.0040     2.3990 ca         1 D2Z       0.072100
      6 C6           1.3860    -0.0020     2.3990 ca         1 D2Z       0.059100
      7 O7           2.0830    -0.0100     3.5680 os         1 D2Z      -0.307900
      8 C8           1.3640     0.3640     4.7480 c3         1 D2Z       0.114100
      9 C9           0.0190    -0.3750     4.7470 c3         1 D2Z       0.183400
     10 O10         -0.6990     0.0010     3.5680 os         1 D2Z      -0.293900
     11 C11          2.1690    -0.0300     5.9880 c3         1 D2Z       0.054000
     12 N12          3.4100     0.7460     6.0320 ns         1 D2Z      -0.185900
     13 C13          4.2830     0.5660     7.0440 c          1 D2Z       0.588700
     14 C14          5.5340     1.3480     7.0870 ca         1 D2Z      -0.161600
     15 O15          4.0390    -0.2410     7.9200 o          1 D2Z      -0.635100
     16 C16          6.4390     1.1620     8.1360 ca         1 D2Z      -0.008000
     17 C17          7.6050     1.8930     8.1730 ca         1 D2Z      -0.172500
     18 C18          7.8820     2.8160     7.1700 ca         1 D2Z       0.131100
     19 C19          6.9840     3.0030     6.1260 ca         1 D2Z      -0.172500
     20 C20          5.8180     2.2710     6.0780 ca         1 D2Z      -0.008000
     21 O21          9.0320     3.5350     7.2110 os         1 D2Z      -0.337900
     22 C22          9.2540     4.4650     6.1490 c3         1 D2Z       0.183400
     23 C23         10.5910     5.1770     6.3640 c3         1 D2Z      -0.022200
     24 N24         11.6840     4.1980     6.2910 nx         1 D2Z       0.033600
     25 C25         11.7710     3.6620     4.9260 c3         1 D2Z       0.007100
     26 C26         12.9510     4.8520     6.6420 c3         1 D2Z       0.007100
     27 H1          -0.5410    -0.0000    -0.9390 ha         1 D2Z       0.110000
     28 H2           1.9230    -0.0010    -0.9390 ha         1 D2Z       0.107000
     29 H3           3.1590    -0.0000     1.1920 ha         1 D2Z       0.109000
     30 H4          -1.7770     0.0010     1.1930 ha         1 D2Z       0.120000
     31 H5           1.1900     1.4340     4.7430 h1         1 D2Z       0.030700
     32 H6           0.2030    -1.4430     4.7220 h1         1 D2Z       0.033200
     33 H7          -0.5500    -0.0740     5.6180 h1         1 D2Z       0.033200
     34 H8           2.4050    -1.0860     5.9460 h1         1 D2Z       0.042200
     35 H9           1.5850     0.1740     6.8780 h1         1 D2Z       0.042200
     36 H10          3.5960     1.4320     5.3270 hn         1 D2Z       0.181500
     37 H11          6.2240     0.4440     8.9170 ha         1 D2Z       0.128000
     38 H12          8.3080     1.7500     8.9850 ha         1 D2Z       0.116000
     39 H13          7.2040     3.7210     5.3460 ha         1 D2Z       0.116000
     40 H14          5.1190     2.4170     5.2640 ha         1 D2Z       0.128000
     41 H15          8.4540     5.1950     6.1350 h1         1 D2Z       0.037700
     42 H16          9.2760     3.9350     5.2040 h1         1 D2Z       0.037700
     43 H17         10.5950     5.6500     7.3390 hx         1 D2Z       0.086700
     44 H18         10.7280     5.9290     5.5970 hx         1 D2Z       0.086700
     45 H19         11.5060     3.4500     6.9320 hn         1 D2Z       0.273800
     46 H20         11.4690     4.4250     4.2190 hx         1 D2Z       0.074033
     47 H21         11.1160     2.8040     4.8330 hx         1 D2Z       0.074033
     48 H22         12.7910     3.3610     4.7210 hx         1 D2Z       0.074033
     49 H23         13.1700     5.6280     5.9190 hx         1 D2Z       0.074033
     50 H24         12.8700     5.2910     7.6290 hx         1 D2Z       0.074033
     51 H25         13.7490     4.1190     6.6380 hx         1 D2Z       0.074033
@<TRIPOS>BOND
     1     1     2 ar  
     2     1     4 ar  
     3     1    27 1   
     4     2     3 ar  
     5     2    28 1   
     6     3     6 ar  
     7     3    29 1   
     8     4     5 ar  
     9     4    30 1   
    10     5     6 ar  
    11     5    10 1   
    12     6     7 1   
    13     7     8 1   
    14     8     9 1   
    15     8    11 1   
    16     8    31 1   
    17     9    10 1   
    18     9    32 1   
    19     9    33 1   
    20    11    12 1   
    21    11    34 1   
    22    11    35 1   
    23    12    13 1   
    24    12    36 1   
    25    13    14 1   
    26    13    15 2   
    27    14    16 ar  
    28    14    20 ar  
    29    16    17 ar  
    30    16    37 1   
    31    17    18 ar  
    32    17    38 1   
    33    18    19 ar  
    34    18    21 1   
    35    19    20 ar  
    36    19    39 1   
    37    20    40 1   
    38    21    22 1   
    39    22    23 1   
    40    22    41 1   
    41    22    42 1   
    42    23    24 1   
    43    23    43 1   
    44    23    44 1   
    45    24    25 1   
    46    24    26 1   
    47    24    45 1   
    48    25    46 1   
    49    25    47 1   
    50    25    48 1   
    51    26    49 1   
    52    26    50 1   
    53    26    51 1   
@<TRIPOS>SUBSTRUCTURE
     1 D2Z         1 TEMP              0 ****  ****    0 ROOT
