@<TRIPOS>MOLECULE
molecule
   51    53     1     0     0
SMALL
bcc


@<TRIPOS>ATOM
      1 C1           0.0000     0.0000     0.0000 ca         1 D2Z      -0.122000
      2 C2           1.3820     0.0000     0.0000 ca         1 D2Z      -0.128000
      3 C3           2.0760     0.0000     1.1950 ca         1 D2Z      -0.125000
      4 C4          -0.6930     0.0010     1.1960 ca         1 D2Z      -0.117000
      5 C5          -0.0040    -0.0040     2.3990 ca         1 D2Z       0.064100
      6 C6           1.3860    -0.0020     2.3990 ca         1 D2Z       0.054100
      7 O7           2.0830    -0.0100     3.5680 os         1 D2Z      -0.330900
      8 C8           1.3640     0.3640     4.7480 c3         1 D2Z       0.083100
      9 C9           0.0190    -0.3750     4.7470 c3         1 D2Z       0.113400
     10 O10         -0.6990     0.0010     3.5680 os         1 D2Z      -0.315900
     11 C11          2.1690    -0.0300     5.9880 c3         1 D2Z       0.123000
     12 N12          3.4100     0.7460     6.0320 ns         1 D2Z      -0.575900
     13 C13          4.2830     0.5660     7.0440 c          1 D2Z       0.671700
     14 C14          5.5340     1.3480     7.0870 ca         1 D2Z      -0.153600
     15 O15          4.0390    -0.2410     7.9200 o          1 D2Z      -0.594100
     16 C16          6.4390     1.1620     8.1360 ca         1 D2Z      -0.042000
     17 C17          7.6050     1.8930     8.1730 ca         1 D2Z      -0.189000
     18 C18          7.8820     2.8160     7.1700 ca         1 D2Z       0.124100
     19 C19          6.9840     3.0030     6.1260 ca         1 D2Z      -0.189000
     20 C20          5.8180     2.2710     6.0780 ca         1 D2Z      -0.042000
     21 O21          9.0320     3.5350     7.2110 os         1 D2Z      -0.360900
     22 C22          9.2540     4.4650     6.1490 c3         1 D2Z       0.112400
     23 C23         10.5910     5.1770     6.3640 c3         1 D2Z       0.104800
     24 N24         11.6840     4.1980     6.2910 nx         1 D2Z      -0.655400
     25 C25         11.7710     3.6620     4.9260 c3         1 D2Z       0.086600
     26 C26         12.9510     4.8520     6.6420 c3         1 D2Z       0.086600
     27 H1          -0.5410    -0.0000    -0.9390 ha         1 D2Z       0.142000
     28 H2           1.9230    -0.0010    -0.9390 ha         1 D2Z       0.137000
     29 H3           3.1590    -0.0000     1.1920 ha         1 D2Z       0.139000
     30 H4          -1.7770     0.0010     1.1930 ha         1 D2Z       0.151000
     31 H5           1.1900     1.4340     4.7430 h1         1 D2Z       0.063700
     32 H6           0.2030    -1.4430     4.7220 h1         1 D2Z       0.076700
     33 H7          -0.5500    -0.0740     5.6180 h1         1 D2Z       0.076700
     34 H8           2.4050    -1.0860     5.9460 h1         1 D2Z       0.072700
     35 H9           1.5850     0.1740     6.8780 h1         1 D2Z       0.072700
     36 H10          3.5960     1.4320     5.3270 hn         1 D2Z       0.320500
     37 H11          6.2240     0.4440     8.9170 ha         1 D2Z       0.161000
     38 H12          8.3080     1.7500     8.9850 ha         1 D2Z       0.140000
     39 H13          7.2040     3.7210     5.3460 ha         1 D2Z       0.140000
     40 H14          5.1190     2.4170     5.2640 ha         1 D2Z       0.161000
     41 H15          8.4540     5.1950     6.1350 h1         1 D2Z       0.074200
     42 H16          9.2760     3.9350     5.2040 h1         1 D2Z       0.074200
     43 H17         10.5950     5.6500     7.3390 hx         1 D2Z       0.115200
     44 H18         10.7280     5.9290     5.5970 hx         1 D2Z       0.115200
     45 H19         11.5060     3.4500     6.9320 hn         1 D2Z       0.469800
     46 H20         11.4690     4.4250     4.2190 hx         1 D2Z       0.102700
     47 H21         11.1160     2.8040     4.8330 hx         1 D2Z       0.102700
     48 H22         12.7910     3.3610     4.7210 hx         1 D2Z       0.102700
     49 H23         13.1700     5.6280     5.9190 hx         1 D2Z       0.102700
     50 H24         12.8700     5.2910     7.6290 hx         1 D2Z       0.102700
     51 H25         13.7490     4.1190     6.6380 hx         1 D2Z       0.102700
@<TRIPOS>BOND
     1     2     3 ar
     2     2     1 ar
     3     3     6 ar
     4     1     4 ar
     5     7     8 1
     6     7     6 1
     7     8    11 1
     8     8     9 1
     9     6     5 ar
    10    11    12 1
    11     4     5 ar
    12     5    10 1
    13    10     9 1
    14    12    13 1
    15    20    19 ar
    16    20    14 ar
    17    13    14 1
    18    13    15 2
    19    19    18 ar
    20    14    16 ar
    21    22    23 1
    22    22    21 1
    23    26    24 1
    24    18    21 1
    25    18    17 ar
    26    16    17 ar
    27    23    24 1
    28    24    25 1
    29     1    27 1
    30     2    28 1
    31     3    29 1
    32     4    30 1
    33     8    31 1
    34     9    32 1
    35     9    33 1
    36    11    34 1
    37    11    35 1
    38    12    36 1
    39    16    37 1
    40    17    38 1
    41    19    39 1
    42    20    40 1
    43    22    41 1
    44    22    42 1
    45    23    43 1
    46    23    44 1
    47    24    45 1
    48    25    46 1
    49    25    47 1
    50    25    48 1
    51    26    49 1
    52    26    50 1
    53    26    51 1
@<TRIPOS>SUBSTRUCTURE
     1 D2Z         1 TEMP              0 ****  ****    0 ROOT
