@<TRIPOS>MOLECULE
molecule
   68    71     1     0     0
SMALL
bcc


@<TRIPOS>ATOM
      1 C2           0.0000     0.0000     0.0000 ca         1 D30      -0.109300
      2 C3          -2.1340    -0.3410     1.0340 ca         1 D30      -0.034100
      3 C6           1.5060     0.0000     0.0000 c3         1 D30      -0.026100
      4 C7          -4.9340     3.1900     2.1850 c3         1 D30       0.229500
      5 C9           1.3580    -1.1330     2.2040 c3         1 D30      -0.080400
      6 C10         -2.0320     0.3880    -1.2430 ca         1 D30      -0.225000
      7 C20         -6.8750    -1.2460     1.1730 ca         1 D30      -0.164000
      8 C21         -1.5760     5.5970     3.3190 c3         1 D30       0.063700
      9 C26        -10.9350     0.5540     1.6150 ca         1 D30       0.175100
     10 C27        -11.8300     0.5480     2.6750 ca         1 D30      -0.198500
     11 C28        -11.3890     0.8080     0.3290 ca         1 D30      -0.198500
     12 C29        -13.1710     0.7890     2.4470 ca         1 D30      -0.044000
     13 C30        -12.7310     1.0480     0.1060 ca         1 D30      -0.044000
     14 C31        -13.6210     1.0360     1.1630 ca         1 D30      -0.227300
     15 C32        -15.0850     1.2990     0.9180 c3         1 D30       0.677200
     16 O21          1.4260     1.0200    -4.3270 o          1 D30      -0.822300
     17 C17          0.3290     1.4460    -4.5390 c          1 D30       0.912600
     18 O22         -0.1280     1.8270    -5.7420 o          1 D30      -0.822300
     19 C14         -0.6410     1.0930    -3.4420 c3         1 D30      -0.003600
     20 C5          -0.6490     0.3720    -1.1760 ca         1 D30       0.164100
     21 C8          -2.7770     0.0330    -0.1360 ca         1 D30      -0.097000
     22 C12          2.0440     0.0000     1.4300 c3         1 D30      -0.081400
     23 C4          -0.1070    -0.7560     2.4110 c3         1 D30      -0.033100
     24 C1          -0.7410    -0.3550     1.1040 ca         1 D30      -0.024300
     25 S7          -3.0850    -0.8010     2.4460 ss         1 D30      -0.219800
     26 C13         -4.7380    -0.4670     1.9350 ca         1 D30      -0.017100
     27 C16         -5.5780    -1.5100     1.5730 ca         1 D30      -0.063000
     28 C15         -5.2070     0.8450     1.8960 ca         1 D30       0.180100
     29 O1          -4.3870     1.8720     2.2500 os         1 D30      -0.290900
     30 C11         -3.9150     4.1660     2.6010 c1         1 D30      -0.165100
     31 C19         -3.1140     4.9600     2.9300 c1         1 D30      -0.135100
     32 C22         -1.9510     5.8990     4.6880 c3         1 D30      -0.104100
     33 C18         -6.5060     1.1010     1.4950 ca         1 D30      -0.212000
     34 C23         -7.3380     0.0570     1.1350 ca         1 D30      -0.032300
     35 C24         -8.7520     0.3380     0.6980 c3         1 D30       0.181700
     36 O25         -9.6150     0.3160     1.8360 os         1 D30      -0.316900
     37 F35        -15.8490     0.6140     1.8690 f          1 D30      -0.227633
     38 F33        -15.3360     2.6710     1.0190 f          1 D30      -0.227633
     39 F34        -15.4300     0.8540    -0.3640 f          1 D30      -0.227633
     40 H6           1.8330    -0.8050    -0.6470 hc         1 D30       0.067200
     41 H6A          1.8330     0.9370    -0.4350 hc         1 D30       0.067200
     42 H7          -5.1520     3.4410     1.1540 h1         1 D30       0.047700
     43 H7A         -5.8470     3.2320     2.7670 h1         1 D30       0.047700
     44 H9           1.6700    -2.0750     1.7710 hc         1 D30       0.036700
     45 H9A          1.6520    -1.0570     3.2440 hc         1 D30       0.036700
     46 H10         -2.5260     0.6790    -2.1620 ha         1 D30       0.146000
     47 H20         -7.3590    -2.1900     0.9540 ha         1 D30       0.138000
     48 H21         -0.7950     4.8480     3.2630 hc         1 D30       0.068700
     49 H21A        -1.3460     6.4900     2.7510 hc         1 D30       0.068700
     50 H27        -11.4780     0.3500     3.6800 ha         1 D30       0.150000
     51 H28        -10.6920     0.8130    -0.5010 ha         1 D30       0.150000
     52 H29        -13.8700     0.7850     3.2750 ha         1 D30       0.146500
     53 H30        -13.0860     1.2470    -0.8980 ha         1 D30       0.146500
     54 H14         -1.0300     2.0010    -2.9970 h1         1 D30       0.025700
     55 H14A        -1.4590     0.5140    -3.8550 h1         1 D30       0.025700
     56 H8          -3.8590     0.0400    -0.1800 ha         1 D30       0.121000
     57 H12          2.0070     1.0160     1.8040 hc         1 D30       0.038200
     58 H12A         3.0580    -0.3800     1.4090 hc         1 D30       0.038200
     59 H4          -0.6460    -1.6740     2.6150 hc         1 D30       0.052200
     60 H4A         -0.1470    -0.0900     3.2640 hc         1 D30       0.052200
     61 H16         -5.2280    -2.5340     1.6320 ha         1 D30       0.150000
     62 H22         -2.1540     4.9760     5.2180 hc         1 D30       0.039033
     63 H22A        -1.1400     6.4260     5.1760 hc         1 D30       0.039033
     64 H22B        -2.8390     6.5200     4.6900 hc         1 D30       0.039033
     65 H18         -6.8600     2.1230     1.4260 ha         1 D30       0.139000
     66 H24         -8.8270     1.3630     0.3540 h1         1 D30       0.045700
     67 H24A        -9.0220    -0.3330    -0.1080 h1         1 D30       0.045700
     68 O11          0.0830     0.7210    -2.2670 os         1 D30      -0.280900
@<TRIPOS>BOND
     1    20     1 ar
     2     1     3 1
     3     1    24 ar
     4    21     2 ar
     5     2    24 ar
     6     2    25 1
     7     3    22 1
     8     3    40 1
     9     3    41 1
    10    29     4 1
    11     4    30 1
    12     4    42 1
    13     4    43 1
    14    22     5 1
    15    23     5 1
    16     5    44 1
    17     5    45 1
    18     6    20 ar
    19     6    21 ar
    20     6    46 1
    21     7    34 ar
    22     7    27 ar
    23     7    47 1
    24    31     8 1
    25     8    32 1
    26     8    48 1
    27     8    49 1
    28    11     9 ar
    29    10     9 ar
    30     9    36 1
    31    12    10 ar
    32    10    50 1
    33    13    11 ar
    34    11    51 1
    35    14    12 ar
    36    12    52 1
    37    14    13 ar
    38    13    53 1
    39    15    14 1
    40    37    15 1
    41    39    15 1
    42    15    38 1
    43    16    17 1
    44    18    17 1
    45    17    19 1
    46    19    68 1
    47    19    54 1
    48    19    55 1
    49    68    20 1
    50    21    56 1
    51    22    57 1
    52    22    58 1
    53    24    23 1
    54    23    59 1
    55    23    60 1
    56    26    25 1
    57    27    26 ar
    58    26    28 ar
    59    27    61 1
    60    33    28 ar
    61    28    29 1
    62    30    31 3
    63    32    62 1
    64    32    63 1
    65    32    64 1
    66    34    33 ar
    67    33    65 1
    68    35    34 1
    69    36    35 1
    70    35    66 1
    71    35    67 1
@<TRIPOS>SUBSTRUCTURE
     1 D30         1 TEMP              0 ****  ****    0 ROOT
