@<TRIPOS>MOLECULE
D30
   68    71     1     0     0
SMALL
bcc


@<TRIPOS>ATOM
      1 C2         -0.0830   -0.1820   -0.1420 ca        1 D30     -0.136300
      2 C3         -1.7050    1.1620    1.0790 ca        1 D30     -0.163100
      3 C6          0.7440   -1.4020   -0.3410 c3        1 D30     -0.029100
      4 C7         -5.5670    3.0010    4.6200 c3        1 D30      0.221500
      5 C9         -0.4910   -2.4000    1.5790 c3        1 D30     -0.074400
      6 C10        -0.7840    2.0020   -1.0060 ca        1 D30     -0.247000
      7 C20        -5.9080    0.1710    0.5220 ca        1 D30     -0.109000
      8 C21        -4.2550    6.2340    2.5330 c3        1 D30     -0.002300
      9 C26       -10.5420    0.7180    1.5370 ca        1 D30      0.169100
     10 C27       -11.3850    1.7090    2.0860 ca        1 D30     -0.192500
     11 C28       -11.0860   -0.3840    0.8610 ca        1 D30     -0.192500
     12 C29       -12.7590    1.5840    1.9530 ca        1 D30     -0.046000
     13 C30       -12.4690   -0.4940    0.7360 ca        1 D30     -0.046000
     14 C31       -13.3030    0.4840    1.2790 ca        1 D30     -0.217300
     15 C32       -14.8100    0.3650    1.1260 c3        1 D30      0.693200
     16 O21         3.1740    1.0630   -3.9250 o         1 D30     -0.814800
     17 C17         1.9580    1.0620   -4.2420 c         1 D30      0.926600
     18 O22         1.4780    0.7310   -5.3570 o         1 D30     -0.814800
     19 C14         0.9380    1.5890   -3.1860 c3        1 D30     -0.016600
     20 C5         -0.0150    0.8330   -1.1370 ca        1 D30      0.200100
     21 C8         -1.6160    2.1500    0.0930 ca        1 D30     -0.036000
     22 C12         0.8510   -2.2680    0.8950 c3        1 D30     -0.075400
     23 C4         -0.9980   -1.0450    2.0260 c3        1 D30     -0.043100
     24 C1         -0.9290   -0.0100    0.9540 ca        1 D30      0.017700
     25 S7         -2.6440    1.4740    2.4620 ss        1 D30     -0.058800
     26 C13        -4.2330    1.0720    2.0500 ca        1 D30     -0.003100
     27 C16        -4.5930    0.5030    0.8170 ca        1 D30     -0.136000
     28 C15        -5.2690    1.2950    2.9840 ca        1 D30      0.083100
     29 O1         -4.9360    1.7690    4.2490 os        1 D30     -0.328900
     30 C11        -5.0970    4.1390    3.8800 c1        1 D30     -0.180100
     31 C19        -4.7100    5.0950    3.2720 c1        1 D30     -0.097100
     32 C22        -2.8210    6.5960    2.8500 c3        1 D30     -0.091100
     33 C18        -6.5940    0.9450    2.7030 ca        1 D30     -0.116000
     34 C23        -6.9180    0.3810    1.4690 ca        1 D30     -0.121300
     35 C24        -8.3120   -0.0410    1.1560 c3        1 D30      0.182700
     36 O25        -9.2010    0.9360    1.7320 os        1 D30     -0.317900
     37 F35       -15.5380    0.9130    2.1560 f         1 D30     -0.242633
     38 F33       -15.3180    0.9780    0.0040 f         1 D30     -0.242633
     39 F34       -15.2810   -0.9230    1.0370 f         1 D30     -0.242633
     40 H6          1.7720   -1.0970   -0.6830 hc        1 D30      0.069200
     41 H6A         0.2930   -1.9950   -1.1840 hc        1 D30      0.069200
     42 H7         -5.2900    3.0960    5.7100 h1        1 D30      0.063200
     43 H7A        -6.6840    2.9070    4.5160 h1        1 D30      0.063200
     44 H9         -1.2270   -2.8650    0.8720 hc        1 D30      0.034700
     45 H9A        -0.4050   -3.0750    2.4690 hc        1 D30      0.034700
     46 H10        -0.7270    2.7920   -1.7680 ha        1 D30      0.148000
     47 H20        -6.1530   -0.2600   -0.4600 ha        1 D30      0.131000
     48 H21        -4.3510    6.0160    1.4310 hc        1 D30      0.057200
     49 H21A       -4.9240    7.1120    2.7570 hc        1 D30      0.057200
     50 H27       -10.9380    2.5660    2.6100 ha        1 D30      0.154000
     51 H28       -10.4410   -1.1610    0.4280 ha        1 D30      0.154000
     52 H29       -13.4290    2.3480    2.3800 ha        1 D30      0.148500
     53 H30       -12.9070   -1.3570    0.2100 ha        1 D30      0.148500
     54 H14        -0.0620    1.7580   -3.6590 h1        1 D30      0.025700
     55 H14A        1.3200    2.5310   -2.7200 h1        1 D30      0.025700
     56 H8         -2.2190    3.0670    0.1950 ha        1 D30      0.128000
     57 H12         1.2350   -3.2810    0.6070 hc        1 D30      0.036200
     58 H12A        1.5910   -1.8190    1.6090 hc        1 D30      0.036200
     59 H4         -2.0570   -1.1410    2.3890 hc        1 D30      0.055700
     60 H4A        -0.3820   -0.6860    2.8960 hc        1 D30      0.055700
     61 H16        -3.8060    0.3240    0.0640 ha        1 D30      0.159000
     62 H22        -2.1390    5.7420    2.6170 hc        1 D30      0.041033
     63 H22A       -2.7070    6.8530    3.9300 hc        1 D30      0.041033
     64 H22B       -2.5110    7.4770    2.2390 hc        1 D30      0.041033
     65 H18        -7.3820    1.1190    3.4500 ha        1 D30      0.142000
     66 H24        -8.5310   -1.0430    1.6150 h1        1 D30      0.048200
     67 H24A       -8.4860   -0.0840    0.0470 h1        1 D30      0.048200
     68 O11         0.8200    0.5730   -2.1800 os        1 D30     -0.277900
@<TRIPOS>BOND
     1    1    3 1   
     2    1   20 ar  
     3    1   24 ar  
     4    2   21 ar  
     5    2   24 ar  
     6    2   25 1   
     7    3   22 1   
     8    3   40 1   
     9    3   41 1   
    10    4   29 1   
    11    4   30 1   
    12    4   42 1   
    13    4   43 1   
    14    5   22 1   
    15    5   23 1   
    16    5   44 1   
    17    5   45 1   
    18    6   20 ar  
    19    6   21 ar  
    20    6   46 1   
    21    7   27 ar  
    22    7   34 ar  
    23    7   47 1   
    24    8   31 1   
    25    8   32 1   
    26    8   48 1   
    27    8   49 1   
    28    9   10 ar  
    29    9   11 ar  
    30    9   36 1   
    31   10   12 ar  
    32   10   50 1   
    33   11   13 ar  
    34   11   51 1   
    35   12   14 ar  
    36   12   52 1   
    37   13   14 ar  
    38   13   53 1   
    39   14   15 1   
    40   15   37 1   
    41   15   38 1   
    42   15   39 1   
    43   16   17 1   
    44   17   18 1   
    45   17   19 1   
    46   19   54 1   
    47   19   55 1   
    48   19   68 1   
    49   20   68 1   
    50   21   56 1   
    51   22   57 1   
    52   22   58 1   
    53   23   24 1   
    54   23   59 1   
    55   23   60 1   
    56   25   26 1   
    57   26   27 ar  
    58   26   28 ar  
    59   27   61 1   
    60   28   29 1   
    61   28   33 ar  
    62   30   31 3   
    63   32   62 1   
    64   32   63 1   
    65   32   64 1   
    66   33   34 ar  
    67   33   65 1   
    68   34   35 1   
    69   35   36 1   
    70   35   66 1   
    71   35   67 1   
@<TRIPOS>SUBSTRUCTURE
     1 D30         1 TEMP              0 ****  ****    0 ROOT
