@<TRIPOS>MOLECULE
molecule
   63    67     1     0     0
SMALL
bcc


@<TRIPOS>ATOM
      1 N1           0.0000     0.0000     0.0000 nz         1 D31      -0.809600
      2 C2           1.4680     0.0000     0.0000 c3         1 D31       0.095800
      3 C3           1.9800     0.0000     1.4420 c3         1 D31      -0.109700
      4 C6           3.5060    -0.1260     1.4460 c3         1 D31      -0.075900
      5 C7           4.0170    -0.0100     2.8830 c3         1 D31       0.139300
      6 N8           3.6620     1.3030     3.4320 n3         1 D31      -0.641600
      7 C9           2.1980     1.3550     3.5270 c3         1 D31       0.139300
      8 C10          1.5880     1.3150     2.1240 c3         1 D31      -0.075900
      9 C20          4.1750     1.3380     4.8080 c3         1 D31       0.058800
     10 C21          4.0630     2.7400     5.3490 c          1 D31       0.660100
     11 N24          4.4770     3.0140     6.6030 ns         1 D31      -0.464100
     12 C25          4.2590     4.2750     7.1480 ca         1 D31       0.118600
     13 C26          3.1640     5.0310     6.7430 ca         1 D31      -0.148000
     14 C27          2.9450     6.2810     7.2820 ca         1 D31      -0.085000
     15 C28          3.8130     6.8000     8.2300 ca         1 D31      -0.122000
     16 C29          4.9130     6.0640     8.6500 ca         1 D31      -0.048500
     17 C30          5.1400     4.7860     8.1110 ca         1 D31      -0.203600
     18 C31          5.9840     6.3680     9.6310 cc         1 D31       0.387800
     19 C32          6.8890     5.2160     9.6680 cc         1 D31      -0.423900
     20 C33          6.3640     4.2220     8.7140 c          1 D31       0.653300
     21 N34          7.6120     6.7390    11.0700 na         1 D31      -0.036600
     22 C35          7.8660     5.5120    10.5730 cd         1 D31       0.042400
     23 C36          9.0230     4.6240    10.9510 c3         1 D31      -0.018400
     24 C37         10.3390     5.3370    10.6290 c3         1 D31      -0.076400
     25 C38         11.5140     4.4350    11.0130 c3         1 D31      -0.078400
     26 C39         11.4540     4.1270    12.5100 c3         1 D31      -0.083400
     27 C40         10.1380     3.4150    12.8320 c3         1 D31      -0.078400
     28 C41          8.9630     4.3160    12.4490 c3         1 D31      -0.076400
     29 O53          3.6020     3.6220     4.6580 o          1 D31      -0.582100
     30 O54          6.8500     3.1350     8.4700 o          1 D31      -0.548100
     31 N55          6.4510     7.2500    10.4790 nd         1 D31      -0.456800
     32 HN11        -0.3340     0.9290     0.1650 hn         1 D31       0.456467
     33 HN12        -0.3340    -0.3220    -0.8870 hn         1 D31       0.456467
     34 H21          1.8290     0.8840    -0.5110 hx         1 D31       0.112200
     35 H22          1.8290    -0.8840    -0.5110 hx         1 D31       0.112200
     36 H3           1.5470    -0.8320     1.9860 hc         1 D31       0.064700
     37 H61          3.9350     0.6670     0.8450 hc         1 D31       0.058200
     38 H62          3.7890    -1.0890     1.0390 hc         1 D31       0.058200
     39 H71          3.5650    -0.7870     3.4880 h1         1 D31       0.056950
     40 H72          5.0950    -0.1220     2.8900 h1         1 D31       0.056950
     41 H91          1.8450     0.5040     4.0960 h1         1 D31       0.056950
     42 H92          1.9030     2.2730     4.0210 h1         1 D31       0.056950
     43 H101         1.9630     2.1490     1.5440 hc         1 D31       0.058200
     44 H102         0.5080     1.3750     2.1990 hc         1 D31       0.058200
     45 H201         3.5950     0.6650     5.4270 h1         1 D31       0.067200
     46 H202         5.2140     1.0300     4.8140 h1         1 D31       0.067200
     47 H24          4.9100     2.2990     7.1540 hn         1 D31       0.346500
     48 H26          2.4790     4.6350     6.0030 ha         1 D31       0.158000
     49 H27          2.0900     6.8630     6.9610 ha         1 D31       0.142000
     50 H28          3.6320     7.7840     8.6460 ha         1 D31       0.150000
     51 H34          8.1680     7.2110    11.7560 hn         1 D31       0.341700
     52 H36          8.9710     3.6980    10.3920 hc         1 D31       0.091700
     53 H371        10.3820     5.5520     9.5680 hc         1 D31       0.045450
     54 H372        10.3950     6.2600    11.1930 hc         1 D31       0.045450
     55 H381        11.4550     3.5100    10.4530 hc         1 D31       0.048200
     56 H382        12.4440     4.9420    10.7870 hc         1 D31       0.048200
     57 H391        12.2850     3.4870    12.7790 hc         1 D31       0.045700
     58 H392        11.5080     5.0530    13.0700 hc         1 D31       0.045700
     59 H401        10.0950     3.2000    13.8920 hc         1 D31       0.048200
     60 H402        10.0820     2.4920    12.2680 hc         1 D31       0.048200
     61 H411         9.0210     5.2410    13.0090 hc         1 D31       0.045450
     62 H412         8.0320     3.8090    12.6740 hc         1 D31       0.045450
     63 H13         -0.3340    -0.6100     0.7200 hn         1 D31       0.456467
@<TRIPOS>BOND
     1     1     2 1
     2     1    32 1
     3     1    33 1
     4     2     3 1
     5     2    34 1
     6     2    35 1
     7     3     4 1
     8     3     8 1
     9     3    36 1
    10     4     5 1
    11     4    37 1
    12     4    38 1
    13     5     6 1
    14     5    39 1
    15     5    40 1
    16     6     7 1
    17     6     9 1
    18     7     8 1
    19     7    41 1
    20     7    42 1
    21     8    43 1
    22     8    44 1
    23     9    10 1
    24     9    45 1
    25     9    46 1
    26    10    11 1
    27    10    29 2
    28    11    12 1
    29    11    47 1
    30    12    13 ar
    31    12    17 ar
    32    13    14 ar
    33    13    48 1
    34    14    15 ar
    35    14    49 1
    36    15    16 ar
    37    15    50 1
    38    16    17 ar
    39    16    18 1
    40    17    20 1
    41    18    19 1
    42    18    31 2
    43    19    20 1
    44    19    22 2
    45    20    30 2
    46    21    22 1
    47    21    31 1
    48    21    51 1
    49    22    23 1
    50    23    24 1
    51    23    28 1
    52    23    52 1
    53    24    25 1
    54    24    53 1
    55    24    54 1
    56    25    26 1
    57    25    55 1
    58    25    56 1
    59    26    27 1
    60    26    57 1
    61    26    58 1
    62    27    28 1
    63    27    59 1
    64    27    60 1
    65    28    61 1
    66    28    62 1
    67    63     1 1
@<TRIPOS>SUBSTRUCTURE
     1 D31         1 TEMP              0 ****  ****    0 ROOT
