@<TRIPOS>MOLECULE
D32
   58    60     1     0     0
SMALL
bcc


@<TRIPOS>ATOM
      1 O22         3.3450   -3.5820    1.1090 o         1 D32     -0.823300
      2 C17         3.3270   -3.3010   -0.1150 c         1 D32      0.923600
      3 O21         3.2400   -4.1370   -1.0590 o         1 D32     -0.823300
      4 C14         3.3370   -1.7970   -0.5060 c3        1 D32     -0.011600
      5 O11         4.6710   -1.4740   -0.9300 os        1 D32     -0.301900
      6 C5          4.7870   -0.5620   -1.9420 ca        1 D32      0.200100
      7 C10         3.7930    0.3810   -2.2550 ca        1 D32     -0.235000
      8 C8          3.9640    1.2140   -3.3500 ca        1 D32     -0.024000
      9 C2          5.9970   -0.5940   -2.6790 ca        1 D32     -0.135300
     10 C6          7.0680   -1.5480   -2.3070 c3        1 D32     -0.042800
     11 C1          6.1540    0.2670   -3.7730 ca        1 D32      0.014700
     12 C4          7.4150    0.2070   -4.5530 c3        1 D32     -0.065800
     13 C3          5.1230    1.1570   -4.1310 ca        1 D32     -0.111100
     14 S7          5.2560    2.2490   -5.4250 ss        1 D32     -0.123800
     15 C13         4.7270    1.5470   -6.8770 ca        1 D32     -0.016100
     16 C16         5.0570    2.3420   -7.9870 ca        1 D32     -0.117000
     17 C20         4.6920    1.9880   -9.2800 ca        1 D32     -0.143000
     18 C15         4.0030    0.3570   -7.1170 ca        1 D32      0.133100
     19 O1          3.6510   -0.3810   -6.0090 os        1 D32     -0.308900
     20 C7          3.2240   -1.7390   -6.2670 c3        1 D32      0.234500
     21 C11         3.1810   -2.4260   -5.0090 c1        1 D32     -0.265100
     22 C19         3.1530   -2.9970   -3.9550 c1        1 D32     -0.042500
     23 C18         3.6320   -0.0060   -8.4200 ca        1 D32     -0.165000
     24 C23         3.9730    0.8090   -9.4990 ca        1 D32     -0.095300
     25 C24         3.5420    0.4610  -10.8830 c3        1 D32      0.180700
     26 O25         3.7440   -0.9550  -11.0570 os        1 D32     -0.313900
     27 C26         3.4270   -1.4600  -12.2930 ca        1 D32      0.168100
     28 C28         3.6710   -2.8430  -12.4420 ca        1 D32     -0.192500
     29 C30         3.3860   -3.4570  -13.6530 ca        1 D32     -0.047000
     30 C27         2.8990   -0.7110  -13.3550 ca        1 D32     -0.192500
     31 C29         2.6190   -1.3440  -14.5640 ca        1 D32     -0.047000
     32 C31         2.8620   -2.7090  -14.7140 ca        1 D32     -0.217300
     33 C32         2.5740   -3.3860  -16.0430 c3        1 D32      0.693200
     34 F34         3.6270   -3.3760  -16.9280 f         1 D32     -0.242633
     35 F35         2.2350   -4.7150  -15.9530 f         1 D32     -0.242633
     36 F33         1.5410   -2.8290  -16.7610 f         1 D32     -0.242633
     37 H14         2.5990   -1.6400   -1.3320 h1        1 D32      0.031700
     38 H14A        3.0980   -1.1440    0.3710 h1        1 D32      0.031700
     39 H10         2.8780    0.4420   -1.6490 ha        1 D32      0.142000
     40 H8          3.1680    1.9260   -3.6200 ha        1 D32      0.129000
     41 H6          7.9270   -1.0010   -1.8430 hc        1 D32      0.045700
     42 H6A         6.6910   -2.3070   -1.5750 hc        1 D32      0.045700
     43 H6B         7.4450   -2.0870   -3.2120 hc        1 D32      0.045700
     44 H4          7.4840    1.0540   -5.2810 hc        1 D32      0.047033
     45 H4A         7.4650   -0.7570   -5.1200 hc        1 D32      0.047033
     46 H4B         8.2960    0.2530   -3.8650 hc        1 D32      0.047033
     47 H16         5.6280    3.2700   -7.8200 ha        1 D32      0.138000
     48 H20         4.9730    2.6320  -10.1240 ha        1 D32      0.123000
     49 H7          3.9520   -2.2320   -6.9690 h1        1 D32      0.042200
     50 H7A         2.2030   -1.7000   -6.7390 h1        1 D32      0.042200
     51 H19         3.1430   -3.4990   -2.9980 ha        1 D32      0.238500
     52 H18         3.0730   -0.9340   -8.6110 ha        1 D32      0.147000
     53 H24         2.4510    0.6900  -11.0230 h1        1 D32      0.046200
     54 H24A        4.1490    1.0140  -11.6500 h1        1 D32      0.046200
     55 H28         4.0820   -3.4120  -11.5960 ha        1 D32      0.154500
     56 H30         3.5670   -4.5370  -13.7810 ha        1 D32      0.148500
     57 H27         2.7000    0.3640  -13.2490 ha        1 D32      0.154500
     58 H29         2.2000   -0.7660  -15.4030 ha        1 D32      0.148500
@<TRIPOS>BOND
     1    1    2 1   
     2    2    3 1   
     3    2    4 1   
     4    4    5 1   
     5    4   37 1   
     6    4   38 1   
     7    5    6 1   
     8    6    7 ar  
     9    6    9 ar  
    10    7    8 ar  
    11    7   39 1   
    12    8   13 ar  
    13    8   40 1   
    14    9   10 1   
    15    9   11 ar  
    16   10   41 1   
    17   10   42 1   
    18   10   43 1   
    19   11   12 1   
    20   11   13 ar  
    21   12   44 1   
    22   12   45 1   
    23   12   46 1   
    24   13   14 1   
    25   14   15 1   
    26   15   16 ar  
    27   15   18 ar  
    28   16   17 ar  
    29   16   47 1   
    30   17   24 ar  
    31   17   48 1   
    32   18   19 1   
    33   18   23 ar  
    34   19   20 1   
    35   20   21 1   
    36   20   49 1   
    37   20   50 1   
    38   21   22 3   
    39   22   51 1   
    40   23   24 ar  
    41   23   52 1   
    42   24   25 1   
    43   25   26 1   
    44   25   53 1   
    45   25   54 1   
    46   26   27 1   
    47   27   28 ar  
    48   27   30 ar  
    49   28   29 ar  
    50   28   55 1   
    51   29   32 ar  
    52   29   56 1   
    53   30   31 ar  
    54   30   57 1   
    55   31   32 ar  
    56   31   58 1   
    57   32   33 1   
    58   33   34 1   
    59   33   35 1   
    60   33   36 1   
@<TRIPOS>SUBSTRUCTURE
     1 D32         1 TEMP              0 ****  ****    0 ROOT
