@<TRIPOS>MOLECULE
molecule
   58    60     1     0     0
SMALL
bcc


@<TRIPOS>ATOM
      1 O22          0.0000     0.0000     0.0000 o          1 D32      -0.827300
      2 C17          1.3430     0.0000     0.0000 c          1 D32       0.896600
      3 O21          1.9470     0.0000     1.0460 o          1 D32      -0.827300
      4 C14          2.0960     0.0000    -1.3060 c3         1 D32       0.014400
      5 O11          3.5010    -0.0010    -1.0450 os         1 D32      -0.285900
      6 C5           4.3290    -0.0000    -2.1240 ca         1 D32       0.170100
      7 C10          3.7980    -0.0000    -3.4060 ca         1 D32      -0.221000
      8 C8           4.6370    -0.0010    -4.5010 ca         1 D32      -0.098000
      9 C2           5.7040     0.0050    -1.9410 ca         1 D32      -0.117300
     10 C6           6.2800     0.0120    -0.5490 c3         1 D32      -0.038800
     11 C1           6.5460     0.0050    -3.0360 ca         1 D32      -0.035300
     12 C4           8.0400     0.0110    -2.8390 c3         1 D32      -0.042800
     13 C3           6.0150    -0.0010    -4.3190 ca         1 D32      -0.028100
     14 S7           7.0880    -0.0010    -5.7180 ss         1 D32      -0.216800
     15 C13          5.9740    -0.1720    -7.0730 ca         1 D32      -0.017100
     16 C16          5.6640     0.9280    -7.8600 ca         1 D32      -0.051000
     17 C20          4.7890     0.7920    -8.9220 ca         1 D32      -0.155000
     18 C15          5.4070    -1.4130    -7.3590 ca         1 D32       0.165100
     19 O1           5.7120    -2.4940    -6.5940 os         1 D32      -0.290900
     20 C7           5.0930    -3.7330    -6.9470 c3         1 D32       0.224500
     21 C11          5.5350    -4.7850    -6.0170 c1         1 D32      -0.148100
     22 C19          5.8900    -5.6380    -5.2910 c1         1 D32      -0.109500
     23 C18          4.5320    -1.5400    -8.4250 ca         1 D32      -0.212000
     24 C23          4.2230    -0.4380    -9.2020 ca         1 D32      -0.006300
     25 C24          3.2710    -0.5800   -10.3620 c3         1 D32       0.162700
     26 O25          4.0040    -0.9160   -11.5410 os         1 D32      -0.309900
     27 C26          3.2890    -1.0810   -12.6850 ca         1 D32       0.160100
     28 C28          3.9370    -1.4080   -13.8680 ca         1 D32      -0.216500
     29 C30          3.2080    -1.5770   -15.0300 ca         1 D32      -0.045000
     30 C27          1.9100    -0.9290   -12.6710 ca         1 D32      -0.216500
     31 C29          1.1860    -1.0980   -13.8360 ca         1 D32      -0.045000
     32 C31          1.8350    -1.4190   -15.0140 ca         1 D32      -0.198300
     33 C32          1.0420    -1.6030   -16.2830 c3         1 D32       0.676200
     34 F34          0.9340    -0.3760   -16.9480 f          1 D32      -0.226967
     35 F35          1.6910    -2.5260   -17.1090 f          1 D32      -0.226967
     36 F33         -0.2370    -2.0760   -15.9700 f          1 D32      -0.226967
     37 H14          2.0260    -0.9800    -1.7630 h1         1 D32       0.028700
     38 H14A         1.6670     0.7400    -1.9700 h1         1 D32       0.028700
     39 H10          2.7240    -0.0000    -3.5470 ha         1 D32       0.146000
     40 H8           4.2230     0.0410    -5.5010 ha         1 D32       0.121000
     41 H6           6.6610     0.9990    -0.3200 hc         1 D32       0.045367
     42 H6A          7.0850    -0.7100    -0.4880 hc         1 D32       0.045367
     43 H6B          5.5060    -0.2500     0.1630 hc         1 D32       0.045367
     44 H4           8.3540    -0.9410    -2.4290 hc         1 D32       0.041700
     45 H4A          8.5290     0.1740    -3.7910 hc         1 D32       0.041700
     46 H4B          8.3110     0.8060    -2.1540 hc         1 D32       0.041700
     47 H16          6.1330     1.8850    -7.6630 ha         1 D32       0.152000
     48 H20          4.5470     1.6490    -9.5380 ha         1 D32       0.136000
     49 H7           5.4800    -4.0710    -7.9000 h1         1 D32       0.051700
     50 H7A          4.0210    -3.5930    -7.0210 h1         1 D32       0.051700
     51 H19          6.2080    -6.4150    -4.6070 ha         1 D32       0.168500
     52 H18          4.2430    -2.5790    -8.5190 ha         1 D32       0.141000
     53 H24          2.6590    -1.4710   -10.2870 h1         1 D32       0.036700
     54 H24A         2.3620    -0.0070   -10.5000 h1         1 D32       0.036700
     55 H28          4.9480    -1.2760   -14.2330 ha         1 D32       0.154500
     56 H30          3.8830    -1.6630   -15.8730 ha         1 D32       0.151000
     57 H27          1.7870    -0.5820   -11.6520 ha         1 D32       0.154500
     58 H29          0.2070    -0.6710   -13.6560 ha         1 D32       0.151000
@<TRIPOS>BOND
     1     2     1 1
     2     3     2 1
     3     2     4 1
     4     5     4 1
     5     4    37 1
     6     4    38 1
     7     5     6 1
     8     9     6 ar
     9     6     7 ar
    10     7     8 ar
    11     7    39 1
    12    13     8 ar
    13     8    40 1
    14    10     9 1
    15     9    11 ar
    16    10    41 1
    17    10    42 1
    18    10    43 1
    19    12    11 1
    20    11    13 ar
    21    12    44 1
    22    12    45 1
    23    12    46 1
    24    13    14 1
    25    14    15 1
    26    15    18 ar
    27    15    16 ar
    28    16    17 ar
    29    16    47 1
    30    17    24 ar
    31    17    48 1
    32    19    18 1
    33    18    23 ar
    34    19    20 1
    35    20    21 1
    36    20    49 1
    37    20    50 1
    38    21    22 3
    39    22    51 1
    40    23    24 ar
    41    23    52 1
    42    24    25 1
    43    26    25 1
    44    25    53 1
    45    25    54 1
    46    27    26 1
    47    30    27 ar
    48    27    28 ar
    49    29    28 ar
    50    28    55 1
    51    32    29 ar
    52    29    56 1
    53    31    30 ar
    54    30    57 1
    55    31    32 ar
    56    31    58 1
    57    33    32 1
    58    35    33 1
    59    36    33 1
    60    33    34 1
@<TRIPOS>SUBSTRUCTURE
     1 D32         1 TEMP              0 ****  ****    0 ROOT
