@<TRIPOS>MOLECULE
D34
   67    71     1     0     0
SMALL
bcc


@<TRIPOS>ATOM
      1 C7          1.4990    0.2000   -0.1420 c3        1 D34      0.412000
      2 N2          0.6410   -0.6580   -1.0560 n4        1 D34     -0.779500
      3 N1          0.8430    0.4810    1.2010 n4        1 D34     -0.867100
      4 C8          0.2250   -1.9620   -0.4600 cy        1 D34      0.023000
      5 C9         -1.0690   -1.9570    0.4100 cy        1 D34     -0.101650
      6 C10        -1.7160   -2.9790   -0.5490 cy        1 D34     -0.072400
      7 C11        -0.4730   -2.9500   -1.4570 cy        1 D34     -0.101650
      8 C1          2.5870    3.9020   -2.0730 ca        1 D34     -0.024000
      9 C2          3.5700    2.9820   -1.6710 ca        1 D34     -0.096750
     10 C3          3.2130    1.7880   -1.0470 ca        1 D34     -0.080000
     11 C4          1.8620    1.4920   -0.8130 ca        1 D34     -0.274300
     12 C5          0.8710    2.4060   -1.2090 ca        1 D34     -0.080000
     13 C6          1.2280    3.5940   -1.8300 ca        1 D34     -0.096750
     14 CA          2.9080    5.1440   -2.7260 cc        1 D34      0.277700
     15 O1          4.2590    5.4750   -2.9460 os        1 D34     -0.349800
     16 CB          2.0850    6.1520   -3.2230 cd        1 D34     -0.172300
     17 CB'         2.9430    7.1580   -3.7790 cd        1 D34     -0.172300
     18 CA'         4.2530    6.7210   -3.5980 cc        1 D34      0.277700
     19 C1'         5.5040    7.3370   -3.9610 ca        1 D34     -0.024000
     20 C2'         6.7530    6.7770   -3.6270 ca        1 D34     -0.096750
     21 C3'         7.9340    7.4140   -3.9920 ca        1 D34     -0.080000
     22 C4'         7.8940    8.6260   -4.7020 ca        1 D34     -0.274300
     23 C5'         6.6550    9.1900   -5.0420 ca        1 D34     -0.080000
     24 C6'         5.4750    8.5520   -4.6750 ca        1 D34     -0.096750
     25 C7'         9.1390    9.3530   -5.1160 c3        1 D34      0.412000
     26 N2'         9.9490    9.7780   -3.9050 n4        1 D34     -0.779500
     27 N1'         9.9300    8.5120   -6.1050 n4        1 D34     -0.867100
     28 C8'        11.1840   10.5500   -4.2380 cy        1 D34      0.023000
     29 C9'        11.9160   11.1880   -3.0090 cy        1 D34     -0.101650
     30 CAX        13.1940   10.4100   -3.3760 cy        1 D34     -0.072400
     31 CBX        12.4670    9.7230   -4.5520 cy        1 D34     -0.101650
     32 H77         2.4350   -0.4180    0.0890 hx        1 D34      0.166700
     33 HN2         1.2170   -0.8490   -1.8960 hn        1 D34      0.482550
     34 HN1         0.0740    1.1580    1.1020 hn        1 D34      0.489467
     35 HN2A        1.5620    0.9060    1.8110 hn        1 D34      0.489467
     36 H8          1.1170   -2.4210    0.0440 hx        1 D34      0.126200
     37 H91        -1.6150   -0.9890    0.4560 hc        1 D34      0.095825
     38 H92        -0.8980   -2.3540    1.4370 hc        1 D34      0.095825
     39 H01        -2.6500   -2.6200   -1.0360 hc        1 D34      0.114700
     40 H02        -1.9100   -3.9720   -0.0820 hc        1 D34      0.114700
     41 H11         0.0710   -3.9200   -1.5330 hc        1 D34      0.095825
     42 H12        -0.6590   -2.5480   -2.4770 hc        1 D34      0.095825
     43 H3          4.0070    1.0840   -0.7450 ha        1 D34      0.151750
     44 H5         -0.1980    2.2010   -1.0380 ha        1 D34      0.151750
     45 H6          0.4400    4.3060   -2.1370 ha        1 D34      0.184500
     46 HB          0.9950    6.1950   -3.2070 ha        1 D34      0.197000
     47 HB'         2.6040    8.0830   -4.2490 ha        1 D34      0.197000
     48 H2'         6.7880    5.8250   -3.0690 ha        1 D34      0.184500
     49 H3'         8.8940    6.9520   -3.7120 ha        1 D34      0.151750
     50 H5'         6.5950   10.1410   -5.6000 ha        1 D34      0.151750
     51 H6'         4.5080    9.0100   -4.9510 ha        1 D34      0.184500
     52 H7B         8.8740   10.3190   -5.6730 hx        1 D34      0.166700
     53 HN2'        9.3260   10.3850   -3.3410 hn        1 D34      0.482550
     54 HN'1       10.0860    7.5630   -5.7420 hn        1 D34      0.489467
     55 HN'2        9.3610    8.4350   -6.9650 hn        1 D34      0.489467
     56 H8'        10.9240   11.3100   -5.0230 hx        1 D34      0.126200
     57 H9'1       12.0020   12.2960   -3.1030 hc        1 D34      0.095825
     58 H9'2       11.4930   10.9320   -2.0130 hc        1 D34      0.095825
     59 H0'1       14.0420   11.0610   -3.6920 hc        1 D34      0.114700
     60 H0'2       13.5490    9.7110   -2.5870 hc        1 D34      0.114700
     61 H1'1       12.9020    9.9650   -5.5490 hc        1 D34      0.095825
     62 H1'2       12.3730    8.6220   -4.4290 hc        1 D34      0.095825
     63 H22        -0.1910   -0.1350   -1.3670 hn        1 D34      0.482550
     64 H13         0.4880   -0.3770    1.6470 hn        1 D34      0.489467
     65 H2'2       10.1910    8.9630   -3.3240 hn        1 D34      0.482550
     66 H1'3       10.8370    8.9430   -6.3410 hn        1 D34      0.489467
     67 H2          4.6350    3.2080   -1.8540 ha        1 D34      0.184500
@<TRIPOS>BOND
     1    1    2 1   
     2    1    3 1   
     3    1   11 1   
     4    1   32 1   
     5    2    4 1   
     6    2   33 1   
     7    2   63 1   
     8    3   34 1   
     9    3   35 1   
    10    3   64 1   
    11    4    5 1   
    12    4    7 1   
    13    4   36 1   
    14    5    6 1   
    15    5   37 1   
    16    5   38 1   
    17    6    7 1   
    18    6   39 1   
    19    6   40 1   
    20    7   41 1   
    21    7   42 1   
    22    8    9 ar  
    23    8   13 ar  
    24    8   14 1   
    25    9   10 ar  
    26    9   67 1   
    27   10   11 ar  
    28   10   43 1   
    29   11   12 ar  
    30   12   13 ar  
    31   12   44 1   
    32   13   45 1   
    33   14   15 1   
    34   14   16 2   
    35   15   18 1   
    36   16   17 1   
    37   16   46 1   
    38   17   18 2   
    39   17   47 1   
    40   18   19 1   
    41   19   20 ar  
    42   19   24 ar  
    43   20   21 ar  
    44   20   48 1   
    45   21   22 ar  
    46   21   49 1   
    47   22   23 ar  
    48   22   25 1   
    49   23   24 ar  
    50   23   50 1   
    51   24   51 1   
    52   25   26 1   
    53   25   27 1   
    54   25   52 1   
    55   26   28 1   
    56   26   53 1   
    57   26   65 1   
    58   27   54 1   
    59   27   55 1   
    60   27   66 1   
    61   28   29 1   
    62   28   31 1   
    63   28   56 1   
    64   29   30 1   
    65   29   57 1   
    66   29   58 1   
    67   30   31 1   
    68   30   59 1   
    69   30   60 1   
    70   31   61 1   
    71   31   62 1   
@<TRIPOS>SUBSTRUCTURE
     1 D34         1 TEMP              0 ****  ****    0 ROOT
