@<TRIPOS>MOLECULE
D35
   79    83     1     0     0
SMALL
bcc


@<TRIPOS>ATOM
      1 C7          1.7120   -0.4760   -0.9840 c3        1 D35      0.410500
      2 N2          0.3910    0.0570   -0.4750 n4        1 D35     -0.807000
      3 N1          2.5470   -1.1810    0.0760 n4        1 D35     -0.868600
      4 C8         -0.6550   -1.0070   -0.1440 c3        1 D35      0.121500
      5 C9         -1.7280   -0.4100    0.7760 c3        1 D35     -0.104650
      6 C10        -2.7160   -1.5040    1.1530 c3        1 D35     -0.079900
      7 C11        -3.3440   -2.1310   -0.0710 c3        1 D35     -0.099400
      8 C12        -2.2930   -2.6560   -1.0250 c3        1 D35     -0.079900
      9 C13        -1.3010   -1.5700   -1.4130 c3        1 D35     -0.104650
     10 C1          4.0450    2.6160   -2.8880 ca        1 D35     -0.024500
     11 C2          3.7080    2.7310   -1.5240 ca        1 D35     -0.098000
     12 C3          2.9570    1.7430   -0.8970 ca        1 D35     -0.080000
     13 C4          2.5280    0.6150   -1.6160 ca        1 D35     -0.274800
     14 C5          2.8630    0.4890   -2.9730 ca        1 D35     -0.080000
     15 C6          3.6120    1.4790   -3.5990 ca        1 D35     -0.098000
     16 CA          4.8070    3.6160   -3.5910 cc        1 D35      0.277200
     17 O1          5.3430    4.7090   -2.8860 os        1 D35     -0.350800
     18 CB          5.1350    3.7120   -4.9410 cd        1 D35     -0.172300
     19 CB'         5.9110    4.9070   -5.0990 cd        1 D35     -0.172300
     20 CA'         6.0240    5.4890   -3.8390 cc        1 D35      0.277200
     21 C1'         6.7020    6.6910   -3.4260 ca        1 D35     -0.024500
     22 C2'         6.7060    7.1470   -2.0930 ca        1 D35     -0.098000
     23 C3'         7.3810    8.3120   -1.7460 ca        1 D35     -0.080000
     24 C4'         8.0700    9.0490   -2.7240 ca        1 D35     -0.274800
     25 C5'         8.0690    8.6050   -4.0550 ca        1 D35     -0.080000
     26 C6'         7.3920    7.4410   -4.4000 ca        1 D35     -0.098000
     27 C7'         8.8190   10.3090   -2.3970 c3        1 D35      0.410500
     28 N2'         7.8960   11.3650   -1.8250 n4        1 D35     -0.807000
     29 N1'        10.0020    9.9700   -1.4990 n4        1 D35     -0.868600
     30 C8'         8.2370   12.8020   -2.2280 c3        1 D35      0.121500
     31 C9'         7.1420   13.7370   -1.6920 c3        1 D35     -0.104650
     32 CAX         7.4310   15.1570   -2.1510 c3        1 D35     -0.079900
     33 CBX         8.7960   15.6160   -1.6920 c3        1 D35     -0.099400
     34 CCX         9.8780   14.6740   -2.1700 c3        1 D35     -0.079900
     35 CDX         9.6130   13.2390   -1.7320 c3        1 D35     -0.104650
     36 H77         1.4480   -1.2820   -1.7560 hx        1 D35      0.170700
     37 HN2         0.0130    0.6440   -1.2400 hn        1 D35      0.473550
     38 HN1         2.0400   -1.9550    0.5240 hn        1 D35      0.487967
     39 HN2A        3.3790   -1.5650   -0.4050 hn        1 D35      0.487967
     40 H8         -0.1190   -1.8340    0.4080 hx        1 D35      0.101200
     41 H91        -2.2770    0.4140    0.2490 hc        1 D35      0.065200
     42 H92        -1.2660    0.0070    1.7100 hc        1 D35      0.065200
     43 H01        -3.5170   -1.0480    1.7980 hc        1 D35      0.086075
     44 H02        -2.2000   -2.2880    1.7680 hc        1 D35      0.086075
     45 H11        -3.9950   -1.3810   -0.5950 hc        1 D35      0.090200
     46 H12        -4.0100   -2.9790    0.2470 hc        1 D35      0.090200
     47 H21        -1.7480   -3.5200   -0.5610 hc        1 D35      0.086075
     48 H22        -2.7870   -3.0340   -1.9610 hc        1 D35      0.086075
     49 H31        -1.8460   -0.7570   -1.9650 hc        1 D35      0.065200
     50 H32        -0.5280   -2.0050   -2.0990 hc        1 D35      0.065200
     51 H3          2.7040    1.8640    0.1690 ha        1 D35      0.151750
     52 H5          2.5390   -0.3880   -3.5610 ha        1 D35      0.151750
     53 H6          3.8680    1.3630   -4.6680 ha        1 D35      0.183750
     54 HB          4.8660    3.0260   -5.7460 ha        1 D35      0.198000
     55 HB'         6.3230    5.2670   -6.0440 ha        1 D35      0.198000
     56 H2'         6.1670    6.5690   -1.3220 ha        1 D35      0.183750
     57 H3'         7.3620    8.6450   -0.6970 ha        1 D35      0.151750
     58 H5'         8.5990    9.1690   -4.8440 ha        1 D35      0.151750
     59 H6'         7.4020    7.1060   -5.4540 ha        1 D35      0.183750
     60 H7B         9.2720   10.7620   -3.3480 hx        1 D35      0.170700
     61 HN2'        6.9510   11.1590   -2.1940 hn        1 D35      0.473550
     62 HN'1       10.5240   10.8100   -1.2090 hn        1 D35      0.487967
     63 HN'2        9.7000    9.4470   -0.6680 hn        1 D35      0.487967
     64 H8'         8.2170   12.8200   -3.3610 hx        1 D35      0.101200
     65 H9'1        6.1350   13.4260   -2.0750 hc        1 D35      0.065200
     66 H9'2        7.1240   13.7110   -0.5700 hc        1 D35      0.065200
     67 H0'1        7.3570   15.2190   -3.2690 hc        1 D35      0.086075
     68 H0'2        6.6390   15.8330   -1.7260 hc        1 D35      0.086075
     69 H1'1        8.9980   16.6450   -2.0970 hc        1 D35      0.090200
     70 H1'2        8.8200   15.6940   -0.5730 hc        1 D35      0.090200
     71 H2'1       10.8710   14.9950   -1.7520 hc        1 D35      0.086075
     72 H2'2        9.9550   14.7160   -3.2890 hc        1 D35      0.086075
     73 H3'1        9.6660   13.1850   -0.6120 hc        1 D35      0.065200
     74 H3'2       10.4160   12.5940   -2.1740 hc        1 D35      0.065200
     75 H221        0.5250    0.6680    0.3410 hn        1 D35      0.473550
     76 H13         2.8750   -0.5230    0.7950 hn        1 D35      0.487967
     77 H2'3        7.8400   11.3170   -0.8010 hn        1 D35      0.473550
     78 H1'3       10.6320    9.3590   -2.0460 hn        1 D35      0.487967
     79 H2          4.0430    3.6150   -0.9560 ha        1 D35      0.183750
@<TRIPOS>BOND
     1    1    2 1
     2    1    3 1
     3    1   13 1
     4    1   36 1
     5    2    4 1
     6    2   37 1
     7    2   75 1
     8    3   38 1
     9    3   39 1
    10    3   76 1
    11    4    5 1
    12    4    9 1
    13    4   40 1
    14    5    6 1
    15    5   41 1
    16    5   42 1
    17    6    7 1
    18    6   43 1
    19    6   44 1
    20    7    8 1
    21    7   45 1
    22    7   46 1
    23    8    9 1
    24    8   47 1
    25    8   48 1
    26    9   49 1
    27    9   50 1
    28   10   11 ar
    29   10   15 ar
    30   10   16 1
    31   11   12 ar
    32   11   79 1
    33   12   13 ar
    34   12   51 1
    35   13   14 ar
    36   14   15 ar
    37   14   52 1
    38   15   53 1
    39   16   17 1
    40   16   18 2
    41   17   20 1
    42   18   19 1
    43   18   54 1
    44   19   20 2
    45   19   55 1
    46   20   21 1
    47   21   22 ar
    48   21   26 ar
    49   22   23 ar
    50   22   56 1
    51   23   24 ar
    52   23   57 1
    53   24   25 ar
    54   24   27 1
    55   25   26 ar
    56   25   58 1
    57   26   59 1
    58   27   28 1
    59   27   29 1
    60   27   60 1
    61   28   30 1
    62   28   61 1
    63   28   77 1
    64   29   62 1
    65   29   63 1
    66   29   78 1
    67   30   31 1
    68   30   35 1
    69   30   64 1
    70   31   32 1
    71   31   65 1
    72   31   66 1
    73   32   33 1
    74   32   67 1
    75   32   68 1
    76   33   34 1
    77   33   69 1
    78   33   70 1
    79   34   35 1
    80   34   71 1
    81   34   72 1
    82   35   73 1
    83   35   74 1
@<TRIPOS>SUBSTRUCTURE
     1 D35         1 TEMP              0 ****  ****    0 ROOT
