@<TRIPOS>MOLECULE
D36
   60    63     1     0     0
SMALL
bcc


@<TRIPOS>ATOM
      1 S            0.0000     0.0000     0.0000 s6         1 D36       0.953900
      2 C1           1.8140     0.0000     0.0000 c3         1 D36       0.037700
      3 N1          -0.4130     0.0000     1.6030 nh         1 D36      -0.461200
      4 O1          -0.4980     1.2370    -0.4900 o          1 D36      -0.565300
      5 C2          -0.7500     1.2590     2.2730 c3         1 D36       0.223800
      6 N2          -2.6040     2.7170     2.9290 nz         1 D36       0.097400
      7 O2          -0.4990    -1.2370    -0.4910 o          1 D36      -0.565300
      8 C3          -2.2670     1.4550     2.2570 c3         1 D36      -0.096200
      9 N3          -0.4870    -4.7840     4.3510 nu         1 D36      -0.280300
     10 C4          -0.4400    -1.1970     2.3150 ca         1 D36       0.499200
     11 N4          -0.3780    -5.9900     6.3420 nb         1 D36      -0.686000
     12 C5          -0.9090    -1.2070     3.6240 ca         1 D36      -0.269300
     13 N5          -0.2040    -7.0820     8.5670 na         1 D36       0.388200
     14 C6          -0.9330    -2.4010     4.3230 ca         1 D36      -0.042000
     15 N6           0.1170    -6.5740     9.8300 nc         1 D36      -0.607100
     16 C7          -0.4820    -3.5530     3.6820 ca         1 D36      -0.109700
     17 N7           0.0730    -3.7100     6.3490 nb         1 D36      -0.739000
     18 C8          -0.2580    -4.8320     5.7160 ca         1 D36       0.720900
     19 N8          -0.0260    -2.3120     1.7360 nb         1 D36      -0.555000
     20 C9          -0.1650    -6.0730     7.6520 ca         1 D36       0.353800
     21 C10         -0.5300    -8.4800     8.2730 c3         1 D36      -0.038000
     22 C11         -1.7670    -8.9050     9.0900 c3         1 D36      -0.041400
     23 C12         -2.4200   -10.0830     8.5370 c3         1 D36      -0.021900
     24 C13         -1.4980   -11.3210     8.5380 c3         1 D36      -0.031900
     25 C14         -0.5670   -11.2250     7.3610 c3         1 D36      -0.031900
     26 C15          0.7810   -10.5760     7.7280 c3         1 D36      -0.021900
     27 C16          0.6280    -9.3610     8.6590 c3         1 D36      -0.041400
     28 C17          0.3550    -5.2950     9.7510 cd         1 D36       0.472800
     29 C18          0.1890    -4.9010     8.3570 ca         1 D36      -0.558500
     30 C19          0.3020    -3.7010     7.6490 ca         1 D36       0.571200
     31 C20         -0.0280    -3.4670     2.3750 ca         1 D36       0.415200
     32 H1           2.1750     0.2890    -0.9800 h1         1 D36       0.071033
     33 H1A          2.1760    -0.9930     0.2400 h1         1 D36       0.071033
     34 H1B          2.1760     0.7040     0.7400 h1         1 D36       0.071033
     35 H2          -0.2740     2.0820     1.7540 h1         1 D36       0.040700
     36 H2A         -0.4000     1.2270     3.2980 h1         1 D36       0.040700
     37 HN2         -3.5980     2.8330     2.9420 hn         1 D36       0.220800
     38 HN2A        -2.1860     3.4800     2.4350 hn         1 D36       0.220800
     39 H3          -2.6170     1.4860     1.2330 hx         1 D36       0.101700
     40 H3A         -2.7430     0.6310     2.7760 hx         1 D36       0.101700
     41 HN3         -0.6720    -5.6270     3.8460 hn         1 D36       0.302800
     42 H5          -1.2510    -0.2910     4.0910 ha         1 D36       0.090000
     43 H6          -1.2920    -2.4380     5.3440 ha         1 D36       0.147000
     44 H10         -0.7370    -8.5960     7.2160 h1         1 D36       0.068700
     45 H11         -2.4760    -8.0860     9.1020 hc         1 D36       0.029200
     46 H11A        -1.4570    -9.1220    10.1050 hc         1 D36       0.029200
     47 H12         -2.7180    -9.8710     7.5170 hc         1 D36       0.016450
     48 H12A        -3.3010   -10.3030     9.1270 hc         1 D36       0.016450
     49 H13         -2.0970   -12.2200     8.4550 hc         1 D36       0.020450
     50 H13A        -0.9230   -11.3440     9.4560 hc         1 D36       0.020450
     51 H14         -0.3810   -12.2220     6.9800 hc         1 D36       0.020450
     52 H14A        -1.0410   -10.6310     6.5890 hc         1 D36       0.020450
     53 H15          1.4000   -11.3150     8.2210 hc         1 D36       0.016450
     54 H15A         1.2720   -10.2550     6.8160 hc         1 D36       0.016450
     55 H16          0.4750    -9.7140     9.6710 hc         1 D36       0.029200
     56 H16A         1.5380    -8.7750     8.6210 hc         1 D36       0.029200
     57 H17          0.6270    -4.6430    10.5720 h4         1 D36       0.018800
     58 H19          0.6640    -2.8010     8.1320 h4         1 D36      -0.019900
     59 H20          0.3190    -4.3600     1.8690 h4         1 D36      -0.002900
     60 H23         -2.2540     2.7010     3.8670 hn         1 D36       0.220800
@<TRIPOS>BOND
     1     1     2 1   
     2     1     3 1   
     3     1     4 2   
     4     1     7 2   
     5     2    32 1   
     6     2    33 1   
     7     2    34 1   
     8     3     5 1   
     9     3    10 1   
    10     5     8 1   
    11     5    35 1   
    12     5    36 1   
    13     6     8 1   
    14     6    37 1   
    15     6    38 1   
    16     6    60 1   
    17     8    39 1   
    18     8    40 1   
    19     9    16 1   
    20     9    18 1   
    21     9    41 1   
    22    10    12 ar  
    23    10    19 ar  
    24    11    18 ar  
    25    11    20 ar  
    26    12    14 ar  
    27    12    42 1   
    28    13    15 1   
    29    13    20 1   
    30    13    21 1   
    31    14    16 ar  
    32    14    43 1   
    33    15    28 2   
    34    16    31 ar  
    35    17    18 ar  
    36    17    30 ar  
    37    19    31 ar  
    38    20    29 ar  
    39    21    22 1   
    40    21    27 1   
    41    21    44 1   
    42    22    23 1   
    43    22    45 1   
    44    22    46 1   
    45    23    24 1   
    46    23    47 1   
    47    23    48 1   
    48    24    25 1   
    49    24    49 1   
    50    24    50 1   
    51    25    26 1   
    52    25    51 1   
    53    25    52 1   
    54    26    27 1   
    55    26    53 1   
    56    26    54 1   
    57    27    55 1   
    58    27    56 1   
    59    28    29 1   
    60    28    57 1   
    61    29    30 ar  
    62    30    58 1   
    63    31    59 1   
@<TRIPOS>SUBSTRUCTURE
     1 D36         1 TEMP              0 ****  ****    0 ROOT
