@<TRIPOS>MOLECULE
molecule
   60    63     1     0     0
SMALL
bcc


@<TRIPOS>ATOM
      1 S            0.0000     0.0000     0.0000 s6         1 D36       1.310900
      2 C1           1.8140     0.0000     0.0000 c3         1 D36      -0.223300
      3 N1          -0.4130     0.0000     1.6030 nh         1 D36      -0.758200
      4 O1          -0.4980     1.2370    -0.4900 o          1 D36      -0.604800
      5 C2          -0.7500     1.2590     2.2730 c3         1 D36       0.222800
      6 N2          -2.6040     2.7170     2.9290 nz         1 D36      -0.807600
      7 O2          -0.4990    -1.2370    -0.4910 o          1 D36      -0.604800
      8 C3          -2.2670     1.4550     2.2570 c3         1 D36       0.063800
      9 N3          -0.4870    -4.7840     4.3510 nu         1 D36      -0.751300
     10 C4          -0.4400    -1.1970     2.3150 ca         1 D36       0.619200
     11 N4          -0.3780    -5.9900     6.3420 nb         1 D36      -0.810000
     12 C5          -0.9090    -1.2070     3.6240 ca         1 D36      -0.286300
     13 N5          -0.2040    -7.0820     8.5670 na         1 D36      -0.019800
     14 C6          -0.9330    -2.4010     4.3230 ca         1 D36      -0.060000
     15 N6           0.1170    -6.5740     9.8300 nc         1 D36      -0.477100
     16 C7          -0.4820    -3.5530     3.6820 ca         1 D36       0.047300
     17 N7           0.0730    -3.7100     6.3490 nb         1 D36      -0.835000
     18 C8          -0.2580    -4.8320     5.7160 ca         1 D36       0.960900
     19 N8          -0.0260    -2.3120     1.7360 nb         1 D36      -0.688000
     20 C9          -0.1650    -6.0730     7.6520 ca         1 D36       0.548800
     21 C10         -0.5300    -8.4800     8.2730 c3         1 D36       0.087000
     22 C11         -1.7670    -8.9050     9.0900 c3         1 D36      -0.090900
     23 C12         -2.4200   -10.0830     8.5370 c3         1 D36      -0.079900
     24 C13         -1.4980   -11.3210     8.5380 c3         1 D36      -0.083900
     25 C14         -0.5670   -11.2250     7.3610 c3         1 D36      -0.083900
     26 C15          0.7810   -10.5760     7.7280 c3         1 D36      -0.079900
     27 C16          0.6280    -9.3610     8.6590 c3         1 D36      -0.090900
     28 C17          0.3550    -5.2950     9.7510 cd         1 D36       0.400800
     29 C18          0.1890    -4.9010     8.3570 ca         1 D36      -0.537500
     30 C19          0.3020    -3.7010     7.6490 ca         1 D36       0.559200
     31 C20         -0.0280    -3.4670     2.3750 ca         1 D36       0.438200
     32 H1           2.1750     0.2890    -0.9800 h1         1 D36       0.109367
     33 H1A          2.1760    -0.9930     0.2400 h1         1 D36       0.109367
     34 H1B          2.1760     0.7040     0.7400 h1         1 D36       0.109367
     35 H2          -0.2740     2.0820     1.7540 h1         1 D36       0.078200
     36 H2A         -0.4000     1.2270     3.2980 h1         1 D36       0.078200
     37 HN2         -3.5980     2.8330     2.9420 hn         1 D36       0.458133
     38 HN2A        -2.1860     3.4800     2.4350 hn         1 D36       0.458133
     39 H3          -2.6170     1.4860     1.2330 hx         1 D36       0.128200
     40 H3A         -2.7430     0.6310     2.7760 hx         1 D36       0.128200
     41 HN3         -0.6720    -5.6270     3.8460 hn         1 D36       0.478800
     42 H5          -1.2510    -0.2910     4.0910 ha         1 D36       0.107000
     43 H6          -1.2920    -2.4380     5.3440 ha         1 D36       0.178000
     44 H10         -0.7370    -8.5960     7.2160 h1         1 D36       0.091700
     45 H11         -2.4760    -8.0860     9.1020 hc         1 D36       0.056700
     46 H11A        -1.4570    -9.1220    10.1050 hc         1 D36       0.056700
     47 H12         -2.7180    -9.8710     7.5170 hc         1 D36       0.045700
     48 H12A        -3.3010   -10.3030     9.1270 hc         1 D36       0.045700
     49 H13         -2.0970   -12.2200     8.4550 hc         1 D36       0.046450
     50 H13A        -0.9230   -11.3440     9.4560 hc         1 D36       0.046450
     51 H14         -0.3810   -12.2220     6.9800 hc         1 D36       0.046450
     52 H14A        -1.0410   -10.6310     6.5890 hc         1 D36       0.046450
     53 H15          1.4000   -11.3150     8.2210 hc         1 D36       0.045700
     54 H15A         1.2720   -10.2550     6.8160 hc         1 D36       0.045700
     55 H16          0.4750    -9.7140     9.6710 hc         1 D36       0.056700
     56 H16A         1.5380    -8.7750     8.6210 hc         1 D36       0.056700
     57 H17          0.6270    -4.6430    10.5720 h4         1 D36       0.068800
     58 H19          0.6640    -2.8010     8.1320 h4         1 D36       0.032100
     59 H20          0.3190    -4.3600     1.8690 h4         1 D36       0.048100
     60 H23         -2.2540     2.7010     3.8670 hn         1 D36       0.458133
@<TRIPOS>BOND
     1     2     1 1
     2     7     1 2
     3     1     3 1
     4     1     4 2
     5     2    32 1
     6     2    33 1
     7     2    34 1
     8     5     3 1
     9     3    10 1
    10     8     5 1
    11     5    35 1
    12     5    36 1
    13     6     8 1
    14     6    37 1
    15     6    38 1
    16     8    39 1
    17     8    40 1
    18    16     9 1
    19     9    18 1
    20     9    41 1
    21    10    12 ar
    22    10    19 ar
    23    11    18 ar
    24    11    20 ar
    25    12    14 ar
    26    12    42 1
    27    21    13 1
    28    13    20 1
    29    13    15 1
    30    14    16 ar
    31    14    43 1
    32    15    28 2
    33    31    16 ar
    34    18    17 ar
    35    17    30 ar
    36    19    31 ar
    37    20    29 ar
    38    27    21 1
    39    22    21 1
    40    21    44 1
    41    23    22 1
    42    22    45 1
    43    22    46 1
    44    24    23 1
    45    23    47 1
    46    23    48 1
    47    25    24 1
    48    24    49 1
    49    24    50 1
    50    25    26 1
    51    25    51 1
    52    25    52 1
    53    26    27 1
    54    26    53 1
    55    26    54 1
    56    27    55 1
    57    27    56 1
    58    29    28 1
    59    28    57 1
    60    29    30 ar
    61    30    58 1
    62    31    59 1
    63    60     6 1
@<TRIPOS>SUBSTRUCTURE
     1 D36         1 TEMP              0 ****  ****    0 ROOT
