@<TRIPOS>MOLECULE
D37
   51    54     1     0     0
SMALL
bcc


@<TRIPOS>ATOM
      1 N1           0.0000     0.0000     0.0000 nu         1 D37      -0.498800
      2 N3          -4.5350    -5.1140     3.4070 nb         1 D37      -0.713000
      3 C4          -2.7690    -1.8630     1.5110 ca         1 D37      -0.035000
      4 C5          -2.0310    -2.7870     2.2490 ca         1 D37      -0.160700
      5 C6          -3.8890    -4.2840     2.6050 ca         1 D37       0.730900
      6 C7          -5.6980    -5.6400     3.0350 ca         1 D37       0.362800
      7 C8          -6.4410    -7.1130     4.9310 c3         1 D37      -0.025000
      8 C10         -5.7390    -9.2350     5.9920 c3         1 D37      -0.022900
      9 C13         -7.4400    -7.2380     7.2110 c3         1 D37      -0.022900
     10 C15         -7.4890    -6.0110     1.6450 cc         1 D37       0.474800
     11 C17         -5.5050    -4.4120     0.9610 ca         1 D37       0.574200
     12 S            1.6560     0.0000     0.0000 s6         1 D37       0.947900
     13 O1           2.0060     0.0000     1.3770 o          1 D37      -0.575300
     14 C1           2.1100    -1.5780    -0.7720 c3         1 D37       0.017700
     15 C2          -0.6960    -0.9380     0.7570 ca         1 D37       0.537200
     16 N7          -0.0270    -1.8230     1.4790 nb         1 D37      -0.609000
     17 C18         -0.6450    -2.7330     2.2080 ca         1 D37       0.419200
     18 C3          -2.0870    -0.9280     0.7560 ca         1 D37      -0.251300
     19 N6          -4.3580    -3.9380     1.4110 nb         1 D37      -0.721000
     20 C16         -6.2260    -5.2940     1.7720 ca         1 D37      -0.572500
     21 N5          -7.6620    -6.7010     2.7360 nd         1 D37      -0.625100
     22 N4          -6.5880    -6.4990     3.6090 na         1 D37       0.366200
     23 C14         -7.5500    -6.6890     5.7730 c3         1 D37      -0.048400
     24 C12         -7.9200    -8.6640     7.2150 c3         1 D37      -0.027400
     25 C11         -6.7710    -9.6740     7.0470 c3         1 D37      -0.027400
     26 C9          -6.3840    -8.6460     4.7660 c3         1 D37      -0.048400
     27 HN1         -0.5000     0.6880    -0.5270 hn         1 D37       0.349800
     28 H4          -3.8520    -1.8800     1.5270 ha         1 D37       0.139000
     29 H8          -5.5140    -6.7760     5.3790 h1         1 D37       0.060700
     30 H10         -5.1520   -10.0970     5.6980 hc         1 D37       0.018700
     31 H10A        -5.0840    -8.4920     6.4320 hc         1 D37       0.018700
     32 H13         -6.4070    -7.2020     7.5350 hc         1 D37       0.018700
     33 H13A        -8.0570    -6.6450     7.8740 hc         1 D37       0.018700
     34 H15         -8.1620    -5.9760     0.7970 h4         1 D37       0.014800
     35 H17         -5.8790    -4.1240    -0.0140 h4         1 D37      -0.019900
     36 H1           2.9790    -1.4350    -1.4020 h1         1 D37       0.065700
     37 H1A          2.3380    -2.3040    -0.0010 h1         1 D37       0.065700
     38 H1B          1.2830    -1.9370    -1.3720 h1         1 D37       0.065700
     39 H18         -0.0650    -3.4450     2.7830 h4         1 D37      -0.016900
     40 H3          -2.6290    -0.1950     0.1700 ha         1 D37       0.118000
     41 HN2         -2.2860    -4.0430     3.9010 hn         1 D37       0.294800
     42 H14         -8.4760    -7.0420     5.3340 hc         1 D37       0.031950
     43 H14A        -7.5640    -5.6070     5.8120 hc         1 D37       0.031950
     44 H12         -8.4220    -8.8610     8.1540 hc         1 D37       0.014700
     45 H12A        -8.6230    -8.7980     6.4010 hc         1 D37       0.014700
     46 H11         -6.2680    -9.7890     7.9990 hc         1 D37       0.014700
     47 H11A        -7.1880   -10.6280     6.7490 hc         1 D37       0.014700
     48 H9          -5.7950    -8.8950     3.8910 hc         1 D37       0.031950
     49 H9A         -7.3880    -9.0380     4.6600 hc         1 D37       0.031950
     50 N2          -2.6790    -3.7570     3.0260 nu         1 D37      -0.272300
     51 O2           2.0070     1.0870    -0.8450 o          1 D37      -0.575300
@<TRIPOS>BOND
     1     1    12 1   
     2     1    15 1   
     3     1    27 1   
     4     2     5 ar  
     5     2     6 ar  
     6     3     4 ar  
     7     3    18 ar  
     8     3    28 1   
     9     4    17 ar  
    10     4    50 1   
    11     5    19 ar  
    12     5    50 1   
    13     6    20 ar  
    14     6    22 1   
    15     7    22 1   
    16     7    23 1   
    17     7    26 1   
    18     7    29 1   
    19     8    25 1   
    20     8    26 1   
    21     8    30 1   
    22     8    31 1   
    23     9    23 1   
    24     9    24 1   
    25     9    32 1   
    26     9    33 1   
    27    10    20 1   
    28    10    21 2   
    29    10    34 1   
    30    11    19 ar  
    31    11    20 ar  
    32    11    35 1   
    33    12    13 2   
    34    12    14 1   
    35    12    51 2   
    36    14    36 1   
    37    14    37 1   
    38    14    38 1   
    39    15    16 ar  
    40    15    18 ar  
    41    16    17 ar  
    42    17    39 1   
    43    18    40 1   
    44    21    22 1   
    45    23    42 1   
    46    23    43 1   
    47    24    25 1   
    48    24    44 1   
    49    24    45 1   
    50    25    46 1   
    51    25    47 1   
    52    26    48 1   
    53    26    49 1   
    54    41    50 1   
@<TRIPOS>SUBSTRUCTURE
     1 D37         1 TEMP              0 ****  ****    0 ROOT
