@<TRIPOS>MOLECULE
molecule
   62    63     1     0     0
SMALL
bcc


@<TRIPOS>ATOM
      1 C1           0.0000     0.0000     0.0000 ca         1 D38      -0.104500
      2 C2           1.3960     0.0000     0.0000 ca         1 D38      -0.080600
      3 C3           2.0880     0.0000     1.2130 ca         1 D38      -0.104500
      4 C4           1.3880    -0.0010     2.4020 ca         1 D38      -0.128500
      5 C5           0.0050    -0.0010     2.3940 ca         1 D38      -0.160300
      6 C6          -0.6870    -0.0010     1.1960 ca         1 D38      -0.128500
      7 C7           2.1380     0.0000    -1.2770 c          1 D38       0.879200
      8 O8           3.4860     0.0000    -1.2740 o          1 D38      -0.833300
      9 O9           1.5340    -0.0000    -2.3310 o          1 D38      -0.833300
     10 C10         -0.7530    -0.0030     3.6970 c3         1 D38       0.113600
     11 N11         -0.9990     1.3780     4.1210 na         1 D38       0.139400
     12 C12         -2.2060     1.9130     4.4160 cc         1 D38      -0.311600
     13 C13         -1.9730     3.2020     4.7570 cd         1 D38       0.274600
     14 N14         -0.6530     3.3900     4.6540 nd         1 D38      -0.379000
     15 N15         -0.1040     2.2880     4.2810 nc         1 D38      -0.186800
     16 C16         -3.0000     4.2250     5.1700 c3         1 D38      -0.072700
     17 C17         -2.6340     4.7900     6.5430 c3         1 D38      -0.135700
     18 C18         -1.3330     5.5890     6.4360 c3         1 D38      -0.074700
     19 C19         -1.5660     6.8270     5.5670 c3         1 D38      -0.098100
     20 C20         -0.8840     6.0220     7.8330 c3         1 D38      -0.098100
     21 C21         -3.7400     5.6930     7.0270 c          1 D38       0.667100
     22 N22         -3.7530     6.1150     8.3060 ns         1 D38      -0.568900
     23 C23         -4.8840     6.9020     8.8060 c3         1 D38       0.007700
     24 C24         -4.6660     8.3570     8.4800 c          1 D38       0.884600
     25 O25         -5.5800     9.2710     8.8440 o          1 D38      -0.824300
     26 O26         -3.6690     8.7020     7.8910 o          1 D38      -0.824300
     27 O27         -4.6160     6.0410     6.2640 o          1 D38      -0.611100
     28 C28         -4.9960     6.7300    10.3220 c3         1 D38      -0.073400
     29 C29         -5.3400     5.2750    10.6460 c3         1 D38      -0.083400
     30 C30         -5.4520     5.1030    12.1620 c3         1 D38      -0.111400
     31 C31         -5.7960     3.6480    12.4870 c3         1 D38       0.083800
     32 N32         -5.9040     3.4830    13.9420 nz         1 D38      -0.811600
     33 H1          -0.5430     0.0000    -0.9370 ha         1 D38       0.154000
     34 H3           3.1710     0.0000     1.2200 ha         1 D38       0.154000
     35 H4           1.9240    -0.0010     3.3440 ha         1 D38       0.108500
     36 H6          -1.7700    -0.0010     1.1980 ha         1 D38       0.108500
     37 H10         -0.1700    -0.5150     4.4530 h1         1 D38       0.056200
     38 H10A        -1.6990    -0.5140     3.5630 h1         1 D38       0.056200
     39 H12         -3.1660     1.4110     4.3870 h4         1 D38       0.169000
     40 H16         -3.0220     5.0280     4.4430 hc         1 D38       0.066200
     41 H16A        -3.9760     3.7570     5.2200 hc         1 D38       0.066200
     42 H17         -2.5000     3.9750     7.2450 hc         1 D38       0.035700
     43 H18         -0.5660     4.9710     5.9850 hc         1 D38       0.091700
     44 H19         -2.6290     6.9580     5.4030 hc         1 D38       0.039700
     45 H19A        -1.1680     7.7010     6.0700 hc         1 D38       0.039700
     46 H19B        -1.0660     6.7000     4.6150 hc         1 D38       0.039700
     47 H20         -1.3960     6.9360     8.1090 hc         1 D38       0.039700
     48 H20A        -1.1220     5.2430     8.5470 hc         1 D38       0.039700
     49 H20B         0.1860     6.1940     7.8310 hc         1 D38       0.039700
     50 HN22        -3.0160     5.8480     8.9280 hn         1 D38       0.294500
     51 H23         -5.7980     6.5600     8.3350 h1         1 D38       0.070700
     52 H28         -5.7760     7.3790    10.7020 hc         1 D38       0.060200
     53 H28A        -4.0520     6.9900    10.7860 hc         1 D38       0.060200
     54 H29         -4.5610     4.6260    10.2650 hc         1 D38       0.053200
     55 H29A        -6.2850     5.0160    10.1820 hc         1 D38       0.053200
     56 H30         -4.5080     5.3630    12.6260 hc         1 D38       0.061200
     57 H30A        -6.2320     5.7520    12.5430 hc         1 D38       0.061200
     58 H31         -6.7400     3.3880    12.0230 hx         1 D38       0.109700
     59 H31A        -5.0170     2.9990    12.1070 hx         1 D38       0.109700
     60 HN32        -6.1290     2.5310    14.1550 hn         1 D38       0.449467
     61 HN3A        -5.0320     3.7240    14.3710 hn         1 D38       0.449467
     62 H323        -6.6250     4.0820    14.2930 hn         1 D38       0.449467
@<TRIPOS>BOND
     1     2     1 ar
     2     1     6 ar
     3     1    33 1
     4     7     2 1
     5     2     3 ar
     6     3     4 ar
     7     3    34 1
     8     4     5 ar
     9     4    35 1
    10     6     5 ar
    11     5    10 1
    12     6    36 1
    13     8     7 1
    14     9     7 1
    15    10    11 1
    16    10    37 1
    17    10    38 1
    18    12    11 1
    19    11    15 1
    20    12    13 2
    21    12    39 1
    22    16    13 1
    23    13    14 1
    24    14    15 2
    25    16    17 1
    26    16    40 1
    27    16    41 1
    28    18    17 1
    29    17    21 1
    30    17    42 1
    31    20    18 1
    32    18    19 1
    33    18    43 1
    34    19    44 1
    35    19    45 1
    36    19    46 1
    37    20    47 1
    38    20    48 1
    39    20    49 1
    40    21    22 1
    41    21    27 2
    42    22    23 1
    43    22    50 1
    44    23    28 1
    45    23    24 1
    46    23    51 1
    47    25    24 1
    48    24    26 1
    49    28    29 1
    50    28    52 1
    51    28    53 1
    52    29    30 1
    53    29    54 1
    54    29    55 1
    55    30    31 1
    56    30    56 1
    57    30    57 1
    58    31    32 1
    59    31    58 1
    60    31    59 1
    61    32    60 1
    62    32    61 1
    63    62    32 1
@<TRIPOS>SUBSTRUCTURE
     1 D38         1 TEMP              0 ****  ****    0 ROOT
