@<TRIPOS>MOLECULE
molecule
   68    72     1     0     0
SMALL
bcc


@<TRIPOS>ATOM
      1 C37          0.0000     0.0000     0.0000 c3         1 D3A       0.132700
      2 O36          1.4290     0.0000     0.0000 os         1 D3A      -0.338900
      3 C21          2.0460     0.0000     1.2120 ca         1 D3A       0.083100
      4 C20          2.3560     1.2040     1.8380 ca         1 D3A       0.114100
      5 O34          2.0430     2.3830     1.2380 os         1 D3A      -0.319900
      6 C35          2.3920     3.5800     1.9390 c3         1 D3A       0.127700
      7 C19          2.9840     1.1980     3.0730 ca         1 D3A      -0.214000
      8 C18          3.3010    -0.0020     3.6820 ca         1 D3A      -0.101000
      9 C17          2.9920    -1.1990     3.0600 ca         1 D3A      -0.123000
     10 C8           2.3610    -1.2000     1.8310 ca         1 D3A      -0.075300
     11 C7           2.0210    -2.5060     1.1590 c3         1 D3A       0.240700
     12 C1           0.5730    -2.8090     1.4070 ca         1 D3A      -0.104300
     13 O6           2.9160    -3.5180     1.6460 os         1 D3A      -0.380600
     14 C5           2.4680    -4.8500     1.3590 c3         1 D3A       0.231400
     15 C4           1.9070    -4.9210    -0.0340 cc         1 D3A      -0.152600
     16 C10          2.4420    -5.4900    -1.1260 cd         1 D3A      -0.175000
     17 C11          1.5310    -5.3030    -2.1890 cd         1 D3A      -0.207000
     18 C12          0.4700    -4.6210    -1.7010 cc         1 D3A      -0.143300
     19 N3           0.6990    -4.3840    -0.3880 na         1 D3A       0.023800
     20 C2          -0.0790    -3.7080     0.5650 ca         1 D3A       0.010800
     21 C13         -1.4350    -3.9380     0.7020 ca         1 D3A      -0.130000
     22 C14         -2.1360    -3.3010     1.7100 ca         1 D3A      -0.109000
     23 C15         -1.4820    -2.4420     2.5740 ca         1 D3A       0.017400
     24 C16         -0.1270    -2.1960     2.4240 ca         1 D3A      -0.086000
     25 Cl1         -2.3620    -1.6690     3.8550 cl         1 D3A      -0.107400
     26 C9           3.6460    -5.8190     1.4800 c3         1 D3A      -0.149400
     27 C22          4.1190    -5.8550     2.9100 c          1 D3A       0.661100
     28 O24          3.5690    -5.1750     3.7500 o          1 D3A      -0.626100
     29 N23          5.1550    -6.6460     3.2580 n          1 D3A      -0.479800
     30 C25          5.8360    -7.4720     2.2510 c3         1 D3A       0.099500
     31 C26          5.8560    -8.9240     2.7370 c3         1 D3A      -0.097400
     32 C27          6.4880    -8.9830     4.1300 c3         1 D3A      -0.049700
     33 C28          5.6470    -8.1590     5.1080 c3         1 D3A      -0.097400
     34 C29          5.6270    -6.6930     4.6480 c3         1 D3A       0.099500
     35 C30          6.5410   -10.4360     4.6050 c3         1 D3A      -0.179400
     36 C31          7.2710   -10.5090     5.9200 c          1 D3A       0.890600
     37 O32          7.4410   -11.6930     6.5310 o          1 D3A      -0.854800
     38 O33          7.7050    -9.5010     6.4270 o          1 D3A      -0.854800
     39 H1          -0.3610     0.9350    -0.4100 h1         1 D3A       0.034033
     40 H2          -0.3610    -0.8230    -0.6050 h1         1 D3A       0.034033
     41 H3          -0.3610    -0.1130     1.0150 h1         1 D3A       0.034033
     42 H4           1.8860     3.5980     2.8960 h1         1 D3A       0.038700
     43 H5           3.4630     3.6070     2.0950 h1         1 D3A       0.038700
     44 H6           2.0900     4.4410     1.3550 h1         1 D3A       0.038700
     45 H7           3.2270     2.1330     3.5620 ha         1 D3A       0.133000
     46 H8           3.7940    -0.0060     4.6470 ha         1 D3A       0.137000
     47 H9           3.2460    -2.1370     3.5380 ha         1 D3A       0.178000
     48 H10          2.1720    -2.4000     0.0920 h1         1 D3A       0.081700
     49 H11          1.6960    -5.1270     2.0670 h1         1 D3A       0.071700
     50 H12          3.4490    -5.8820    -1.2120 ha         1 D3A       0.154000
     51 H13          1.6090    -5.7380    -3.1780 ha         1 D3A       0.148000
     52 H14         -0.4380    -4.3840    -2.2420 h4         1 D3A       0.164000
     53 H15         -1.9450    -4.6110     0.0240 ha         1 D3A       0.147000
     54 H16         -3.1960    -3.4890     1.8340 ha         1 D3A       0.146000
     55 H17          0.3810    -1.5220     3.1040 ha         1 D3A       0.167000
     56 H18          4.4540    -5.4860     0.8410 hc         1 D3A       0.074200
     57 H19          3.3310    -6.8100     1.1780 hc         1 D3A       0.074200
     58 H20          5.3010    -7.4120     1.3110 h1         1 D3A       0.045200
     59 H21          6.8520    -7.1190     2.1200 h1         1 D3A       0.045200
     60 H22          4.8420    -9.3030     2.7850 hc         1 D3A       0.055450
     61 H23          6.4400    -9.5250     2.0510 hc         1 D3A       0.055450
     62 H24          7.4900    -8.5750     4.0870 hc         1 D3A       0.060700
     63 H25          6.0820    -8.2200     6.0980 hc         1 D3A       0.055450
     64 H26          4.6340    -8.5440     5.1280 hc         1 D3A       0.055450
     65 H27          4.9560    -6.1230     5.2790 h1         1 D3A       0.045200
     66 H28          6.6280    -6.2810     4.7050 h1         1 D3A       0.045200
     67 H29          5.5330   -10.8120     4.7300 hc         1 D3A       0.031700
     68 H30          7.0610   -11.0370     3.8690 hc         1 D3A       0.031700
@<TRIPOS>BOND
     1     6     5 1
     2    25    23 1
     3     5     4 1
     4    23    22 ar
     5    23    24 ar
     6    22    21 ar
     7     2     1 1
     8     2     3 1
     9     4     3 ar
    10     4     7 ar
    11    24    12 ar
    12     3    10 ar
    13    21    20 ar
    14     7     8 ar
    15    12    20 ar
    16    12    11 1
    17    20    19 1
    18    10    11 1
    19    10     9 ar
    20     8     9 ar
    21    18    19 1
    22    18    17 2
    23    11    13 1
    24    19    15 1
    25    17    16 1
    26    15    16 2
    27    15    14 1
    28    13    14 1
    29    14    26 1
    30    26    27 1
    31    28    27 2
    32    27    29 1
    33    29    34 1
    34    29    30 1
    35    34    33 1
    36    30    31 1
    37    33    32 1
    38    31    32 1
    39    32    35 1
    40    35    36 1
    41    38    36 1
    42    36    37 1
    43     1    39 1
    44     1    40 1
    45     1    41 1
    46     6    42 1
    47     6    43 1
    48     6    44 1
    49     7    45 1
    50     8    46 1
    51     9    47 1
    52    11    48 1
    53    14    49 1
    54    16    50 1
    55    17    51 1
    56    18    52 1
    57    21    53 1
    58    22    54 1
    59    24    55 1
    60    26    56 1
    61    26    57 1
    62    30    58 1
    63    30    59 1
    64    31    60 1
    65    31    61 1
    66    32    62 1
    67    33    63 1
    68    33    64 1
    69    34    65 1
    70    34    66 1
    71    35    67 1
    72    35    68 1
@<TRIPOS>SUBSTRUCTURE
     1 D3A         1 TEMP              0 ****  ****    0 ROOT
