@<TRIPOS>MOLECULE
molecule
   41    42     1     0     0
SMALL
bcc


@<TRIPOS>ATOM
      1 C3           0.0000     0.0000     0.0000 ca         1 D3B      -0.166000
      2 C4           1.3820     0.0000     0.0000 ca         1 D3B      -0.035000
      3 C5           2.0770     0.0000     1.1960 ca         1 D3B      -0.342500
      4 C6           1.3930    -0.0010     2.3970 ca         1 D3B      -0.029000
      5 C7          -0.1670     1.0000     7.0550 ca         1 D3B       0.049600
      6 C8           1.2130     1.0460     7.2070 ca         1 D3B      -0.127000
      7 N20         -0.7270     0.4010     5.9210 ns         1 D3B      -0.465100
      8 C22         -0.1050     0.4990     4.7300 c          1 D3B       0.793100
      9 O23          0.9850     1.0330     4.6560 o          1 D3B      -0.670100
     10 C1           0.0060    -0.0010     2.4040 ca         1 D3B       0.065600
     11 C2          -0.6940     0.0050     1.2000 ca         1 D3B       0.169100
     12 C9           1.7630     1.6320     8.3290 ca         1 D3B      -0.073300
     13 C10          0.9420     2.1730     9.3020 ca         1 D3B      -0.124000
     14 C11         -0.4320     2.1280     9.1540 ca         1 D3B      -0.103000
     15 C12         -0.9880     1.5430     8.0330 ca         1 D3B      -0.106300
     16 O1          -2.0530     0.0170     1.2010 oh         1 D3B      -0.496100
     17 S2           3.8390    -0.0010     1.1890 sy         1 D3B       1.237200
     18 O3           4.2460    -0.5450     2.4360 o          1 D3B      -0.521300
     19 O4           4.2350    -0.5440    -0.0630 o          1 D3B      -0.521300
     20 N5           4.3290     1.5810     1.1860 nz         1 D3B      -0.806500
     21 C13         -2.4860     1.4900     7.8750 c3         1 D3B      -0.049800
     22 C14          3.2610     1.6830     8.4960 c3         1 D3B      -0.045800
     23 H1          -0.5410     0.0020    -0.9380 ha         1 D3B       0.170000
     24 H2           1.9220    -0.0020    -0.9390 ha         1 D3B       0.157000
     25 H3           1.9400    -0.0010     3.3320 ha         1 D3B       0.204000
     26 H4           1.8570     0.6230     6.4450 ha         1 D3B       0.154000
     27 H5          -1.5660    -0.1400     6.0040 hn         1 D3B       0.330500
     28 H6          -1.6170    -0.3710     3.6700 hn         1 D3B       0.345500
     29 H7           1.3760     2.6320    10.1820 ha         1 D3B       0.140000
     30 H8          -1.0730     2.5520     9.9170 ha         1 D3B       0.143000
     31 H9          -2.3750    -0.7310     0.7250 ho         1 D3B       0.447000
     32 H10          3.9330     2.0520     0.3960 hn         1 D3B       0.493133
     33 H11          4.0220     2.0270     2.0280 hn         1 D3B       0.493133
     34 H12         -2.9540     2.0470     8.6780 hc         1 D3B       0.046033
     35 H13         -2.7650     1.9260     6.9230 hc         1 D3B       0.046033
     36 H14         -2.8160     0.4590     7.9110 hc         1 D3B       0.046033
     37 H15          3.6530     0.6740     8.5380 hc         1 D3B       0.045033
     38 H16          3.7000     2.2070     7.6550 hc         1 D3B       0.045033
     39 H17          3.5050     2.2030     9.4140 hc         1 D3B       0.045033
     40 N24         -0.6900     0.0050     3.6210 ns         1 D3B      -0.476100
     41 H53          5.3270     1.6210     1.1300 hn         1 D3B       0.493133
@<TRIPOS>BOND
     1    22    12 1
     2    12    13 ar
     3    12     6 ar
     4    13    14 ar
     5     6     5 ar
     6     9     8 2
     7    14    15 ar
     8     5    15 ar
     9     5     7 1
    10     8     7 1
    11     8    40 1
    12    15    21 1
    13    40    10 1
    14    16    11 1
    15    10    11 ar
    16    10     4 ar
    17    11     1 ar
    18     4     3 ar
    19     1     2 ar
    20     3     2 ar
    21     3    17 1
    22    20    17 1
    23    17    19 2
    24    17    18 2
    25     1    23 1
    26     2    24 1
    27     4    25 1
    28     6    26 1
    29     7    27 1
    30    40    28 1
    31    13    29 1
    32    14    30 1
    33    16    31 1
    34    20    32 1
    35    20    33 1
    36    21    34 1
    37    21    35 1
    38    21    36 1
    39    22    37 1
    40    22    38 1
    41    22    39 1
    42    41    20 1
@<TRIPOS>SUBSTRUCTURE
     1 D3B         1 TEMP              0 ****  ****    0 ROOT
