@<TRIPOS>MOLECULE
D3B
   41    42     1     0     0
SMALL
bcc


@<TRIPOS>ATOM
      1 C3           0.0000     0.0000     0.0000 ca         1 D3B      -0.153000
      2 C4           1.3820     0.0000     0.0000 ca         1 D3B       0.008000
      3 C5           2.0770     0.0000     1.1960 ca         1 D3B      -0.225500
      4 C6           1.3930    -0.0010     2.3970 ca         1 D3B       0.000000
      5 C7          -0.1670     1.0000     7.0550 ca         1 D3B      -0.103400
      6 C8           1.2130     1.0460     7.2070 ca         1 D3B      -0.101000
      7 N20         -0.7270     0.4010     5.9210 ns         1 D3B      -0.009100
      8 C22         -0.1050     0.4990     4.7300 c          1 D3B       0.560100
      9 O23          0.9850     1.0330     4.6560 o          1 D3B      -0.722100
     10 C1           0.0060    -0.0010     2.4040 ca         1 D3B      -0.095400
     11 C2          -0.6940     0.0050     1.2000 ca         1 D3B       0.187100
     12 C9           1.7630     1.6320     8.3290 ca         1 D3B      -0.080300
     13 C10          0.9420     2.1730     9.3020 ca         1 D3B      -0.092000
     14 C11         -0.4320     2.1280     9.1540 ca         1 D3B      -0.075000
     15 C12         -0.9880     1.5430     8.0330 ca         1 D3B      -0.111300
     16 O1          -2.0530     0.0170     1.2010 oh         1 D3B      -0.481100
     17 S2           3.8390    -0.0010     1.1890 sy         1 D3B       0.939200
     18 O3           4.2460    -0.5450     2.4360 o          1 D3B      -0.499800
     19 O4           4.2350    -0.5440    -0.0630 o          1 D3B      -0.499800
     20 N5           4.3290     1.5810     1.1860 nz         1 D3B      -0.130500
     21 C13         -2.4860     1.4900     7.8750 c3         1 D3B       0.063200
     22 C14          3.2610     1.6830     8.4960 c3         1 D3B       0.067200
     23 H1          -0.5410     0.0020    -0.9380 ha         1 D3B       0.137000
     24 H2           1.9220    -0.0020    -0.9390 ha         1 D3B       0.125000
     25 H3           1.9400    -0.0010     3.3320 ha         1 D3B       0.182000
     26 H4           1.8570     0.6230     6.4450 ha         1 D3B       0.138000
     27 H5          -1.5660    -0.1400     6.0040 hn         1 D3B       0.169500
     28 H6          -1.6170    -0.3710     3.6700 hn         1 D3B       0.182500
     29 H7           1.3760     2.6320    10.1820 ha         1 D3B       0.113000
     30 H8          -1.0730     2.5520     9.9170 ha         1 D3B       0.114000
     31 H9          -2.3750    -0.7310     0.7250 ho         1 D3B       0.428000
     32 H10          3.9330     2.0520     0.3960 hn         1 D3B       0.314467
     33 H11          4.0220     2.0270     2.0280 hn         1 D3B       0.314467
     34 H12         -2.9540     2.0470     8.6780 hc         1 D3B       0.009367
     35 H13         -2.7650     1.9260     6.9230 hc         1 D3B       0.009367
     36 H14         -2.8160     0.4590     7.9110 hc         1 D3B       0.009367
     37 H15          3.6530     0.6740     8.5380 hc         1 D3B       0.008033
     38 H16          3.7000     2.2070     7.6550 hc         1 D3B       0.008033
     39 H17          3.5050     2.2030     9.4140 hc         1 D3B       0.008033
     40 N24         -0.6900     0.0050     3.6210 ns         1 D3B      -0.032100
     41 H53          5.3270     1.6210     1.1300 hn         1 D3B       0.314467
@<TRIPOS>BOND
     1     1     2 ar  
     2     1    11 ar  
     3     1    23 1   
     4     2     3 ar  
     5     2    24 1   
     6     3     4 ar  
     7     3    17 1   
     8     4    10 ar  
     9     4    25 1   
    10     5     6 ar  
    11     5     7 1   
    12     5    15 ar  
    13     6    12 ar  
    14     6    26 1   
    15     7     8 1   
    16     7    27 1   
    17     8     9 2   
    18     8    40 1   
    19    10    11 ar  
    20    10    40 1   
    21    11    16 1   
    22    12    13 ar  
    23    12    22 1   
    24    13    14 ar  
    25    13    29 1   
    26    14    15 ar  
    27    14    30 1   
    28    15    21 1   
    29    16    31 1   
    30    17    18 2   
    31    17    19 2   
    32    17    20 1   
    33    20    32 1   
    34    20    33 1   
    35    20    41 1   
    36    21    34 1   
    37    21    35 1   
    38    21    36 1   
    39    22    37 1   
    40    22    38 1   
    41    22    39 1   
    42    28    40 1   
@<TRIPOS>SUBSTRUCTURE
     1 D3B         1 TEMP              0 ****  ****    0 ROOT
