@<TRIPOS>MOLECULE
molecule
   51    53     1     0     0
SMALL
bcc


@<TRIPOS>ATOM
      1 FBB          0.0000     0.0000     0.0000 f          1 D3C      -0.216300
      2 CBA          1.3990     0.0000     0.0000 c3         1 D3C       0.706200
      3 FBC          1.8640     0.0000     1.3190 f          1 D3C      -0.216300
      4 FBD          1.8650    -1.1430    -0.6590 f          1 D3C      -0.216300
      5 CAX          1.9010     1.2300    -0.7100 cc         1 D3C      -0.200600
      6 CAY          2.1610     1.3300    -2.0310 cd         1 D3C      -0.133000
      7 CAZ          2.6130     2.6440    -2.2760 cd         1 D3C      -0.191000
      8 CAV          2.6140     3.2900    -1.1000 cc         1 D3C      -0.128600
      9 CAU          3.0230     4.7200    -0.8350 c3         1 D3C       0.182300
     10 NAW          2.1680     2.4320    -0.1320 na         1 D3C      -0.021100
     11 CAT          2.0110     2.7830     1.2850 c3         1 D3C       0.012300
     12 CAS          2.8340     4.0400     1.5880 c3         1 D3C       0.108000
     13 NAQ          2.6080     5.0390     0.5440 n          1 D3C      -0.506800
     14 CAP          2.0230     6.2170     0.8380 c          1 D3C       0.795100
     15 OAR          1.6010     6.4230     1.9600 o          1 D3C      -0.650100
     16 NAO          1.9040     7.1660    -0.1120 ns         1 D3C      -0.610900
     17 CAN          1.3680     8.4850     0.2340 c3         1 D3C       0.129000
     18 CAL          1.3390     9.3660    -1.0160 c3         1 D3C      -0.133400
     19 CAK          0.7790    10.7440    -0.6550 c3         1 D3C       0.111500
     20 NAM         -0.6250    10.6090    -0.2430 nz         1 D3C      -0.812600
     21 CAJ          0.8660    11.6650    -1.8740 c3         1 D3C      -0.045100
     22 CAD          0.4290    13.0550    -1.4860 ca         1 D3C      -0.189300
     23 CAC         -0.8810    13.4480    -1.6880 ca         1 D3C      -0.157000
     24 CAB         -1.2820    14.7240    -1.3320 ca         1 D3C       0.105900
     25 FAI         -2.5630    15.1090    -1.5300 f          1 D3C      -0.099900
     26 CAA         -0.3710    15.6070    -0.7730 ca         1 D3C       0.160900
     27 FAH         -0.7630    16.8520    -0.4240 f          1 D3C      -0.087900
     28 CAF          0.9390    15.2120    -0.5710 ca         1 D3C      -0.167000
     29 CAE          1.3380    13.9330    -0.9230 ca         1 D3C       0.163900
     30 FAG          2.6170    13.5450    -0.7200 f          1 D3C      -0.117900
     31 H1           1.9270     0.5870    -2.7840 ha         1 D3C       0.171000
     32 H2           2.9060     3.0540    -3.2340 ha         1 D3C       0.156000
     33 H3           4.1030     4.7870    -0.8950 h1         1 D3C       0.063700
     34 H4           2.4830     5.3660    -1.5170 h1         1 D3C       0.063700
     35 H5           2.3630     1.9640     1.9010 h1         1 D3C       0.083700
     36 H6           0.9660     2.9770     1.4950 h1         1 D3C       0.083700
     37 H7           2.5300     4.4460     2.5450 h1         1 D3C       0.084700
     38 H8           3.8860     3.7820     1.6170 h1         1 D3C       0.084700
     39 H9           2.2130     6.9810    -1.0460 hn         1 D3C       0.323500
     40 H10          1.9970     8.9450     0.9860 h1         1 D3C       0.047700
     41 H11          0.3620     8.3760     0.6210 h1         1 D3C       0.047700
     42 H12          2.3450     9.4760    -1.4030 hc         1 D3C       0.089200
     43 H13          0.7100     8.9060    -1.7680 hc         1 D3C       0.089200
     44 H14          1.3560    11.1670     0.1590 hx         1 D3C       0.126700
     45 H15         -0.6830     9.9980     0.5470 hn         1 D3C       0.458133
     46 H16         -0.9880    11.5090     0.0040 hn         1 D3C       0.458133
     47 H18          1.8880    11.6950    -2.2320 hc         1 D3C       0.097200
     48 H19          0.2200    11.2890    -2.6580 hc         1 D3C       0.097200
     49 H20         -1.5780    12.7780    -2.1750 ha         1 D3C       0.152000
     50 H21          1.6520    15.9000    -0.1320 ha         1 D3C       0.193000
     51 HAM3        -1.1620    10.2420    -1.0030 hn         1 D3C       0.458133
@<TRIPOS>BOND
     1     4     2 1
     2     2     1 1
     3     2     3 1
     4     2     5 1
     5     6     5 2
     6     6     7 1
     7     5    10 1
     8     7     8 2
     9    10     8 1
    10    10    11 1
    11     8     9 1
    12    11    12 1
    13     9    13 1
    14    12    13 1
    15    13    14 1
    16    15    14 2
    17    14    16 1
    18    16    17 1
    19    17    18 1
    20    18    19 1
    21    19    20 1
    22    19    21 1
    23    21    22 1
    24    23    22 ar
    25    23    24 ar
    26    25    24 1
    27    22    29 ar
    28    24    26 ar
    29    29    30 1
    30    29    28 ar
    31    26    28 ar
    32    26    27 1
    33     6    31 1
    34     7    32 1
    35     9    33 1
    36     9    34 1
    37    11    35 1
    38    11    36 1
    39    12    37 1
    40    12    38 1
    41    16    39 1
    42    17    40 1
    43    17    41 1
    44    18    42 1
    45    18    43 1
    46    19    44 1
    47    20    45 1
    48    20    46 1
    49    21    47 1
    50    21    48 1
    51    23    49 1
    52    28    50 1
    53    51    20 1
@<TRIPOS>SUBSTRUCTURE
     1 D3C         1 TEMP              0 ****  ****    0 ROOT
