@<TRIPOS>MOLECULE
D3C
   51    53     1     0     0
SMALL
bcc


@<TRIPOS>ATOM
      1 FBB          0.0000     0.0000     0.0000 f          1 D3C      -0.203967
      2 CBA          1.3990     0.0000     0.0000 c3         1 D3C       0.683200
      3 FBC          1.8640     0.0000     1.3190 f          1 D3C      -0.203967
      4 FBD          1.8650    -1.1430    -0.6590 f          1 D3C      -0.203967
      5 CAX          1.9010     1.2300    -0.7100 cc         1 D3C      -0.415600
      6 CAY          2.1610     1.3300    -2.0310 cd         1 D3C      -0.089000
      7 CAZ          2.6130     2.6440    -2.2760 cd         1 D3C      -0.156000
      8 CAV          2.6140     3.2900    -1.1000 cc         1 D3C      -0.331600
      9 CAU          3.0230     4.7200    -0.8350 c3         1 D3C       0.160300
     10 NAW          2.1680     2.4320    -0.1320 na         1 D3C       0.497900
     11 CAT          2.0110     2.7830     1.2850 c3         1 D3C      -0.097700
     12 CAS          2.8340     4.0400     1.5880 c3         1 D3C       0.059000
     13 NAQ          2.6080     5.0390     0.5440 n          1 D3C      -0.179800
     14 CAP          2.0230     6.2170     0.8380 c          1 D3C       0.609100
     15 OAR          1.6010     6.4230     1.9600 o          1 D3C      -0.694100
     16 NAO          1.9040     7.1660    -0.1120 ns         1 D3C      -0.241900
     17 CAN          1.3680     8.4850     0.2340 c3         1 D3C       0.068000
     18 CAL          1.3390     9.3660    -1.0160 c3         1 D3C      -0.059400
     19 CAK          0.7790    10.7440    -0.6550 c3         1 D3C      -0.063500
     20 NAM         -0.6250    10.6090    -0.2430 nz         1 D3C       0.046400
     21 CAJ          0.8660    11.6650    -1.8740 c3         1 D3C       0.036900
     22 CAD          0.4290    13.0550    -1.4860 ca         1 D3C      -0.198300
     23 CAC         -0.8810    13.4480    -1.6880 ca         1 D3C      -0.121000
     24 CAB         -1.2820    14.7240    -1.3320 ca         1 D3C       0.098900
     25 FAI         -2.5630    15.1090    -1.5300 f          1 D3C      -0.093900
     26 CAA         -0.3710    15.6070    -0.7730 ca         1 D3C       0.150900
     27 FAH         -0.7630    16.8520    -0.4240 f          1 D3C      -0.086900
     28 CAF          0.9390    15.2120    -0.5710 ca         1 D3C      -0.120000
     29 CAE          1.3380    13.9330    -0.9230 ca         1 D3C       0.147900
     30 FAG          2.6170    13.5450    -0.7200 f          1 D3C      -0.107900
     31 H1           1.9270     0.5870    -2.7840 ha         1 D3C       0.143000
     32 H2           2.9060     3.0540    -3.2340 ha         1 D3C       0.132000
     33 H3           4.1030     4.7870    -0.8950 h1         1 D3C       0.029700
     34 H4           2.4830     5.3660    -1.5170 h1         1 D3C       0.029700
     35 H5           2.3630     1.9640     1.9010 h1         1 D3C       0.058200
     36 H6           0.9660     2.9770     1.4950 h1         1 D3C       0.058200
     37 H7           2.5300     4.4460     2.5450 h1         1 D3C       0.053700
     38 H8           3.8860     3.7820     1.6170 h1         1 D3C       0.053700
     39 H9           2.2130     6.9810    -1.0460 hn         1 D3C       0.191500
     40 H10          1.9970     8.9450     0.9860 h1         1 D3C       0.019200
     41 H11          0.3620     8.3760     0.6210 h1         1 D3C       0.019200
     42 H12          2.3450     9.4760    -1.4030 hc         1 D3C       0.055700
     43 H13          0.7100     8.9060    -1.7680 hc         1 D3C       0.055700
     44 H14          1.3560    11.1670     0.1590 hx         1 D3C       0.102700
     45 H15         -0.6830     9.9980     0.5470 hn         1 D3C       0.233800
     46 H16         -0.9880    11.5090     0.0040 hn         1 D3C       0.233800
     47 H18          1.8880    11.6950    -2.2320 hc         1 D3C       0.061200
     48 H19          0.2200    11.2890    -2.6580 hc         1 D3C       0.061200
     49 H20         -1.5780    12.7780    -2.1750 ha         1 D3C       0.124000
     50 H21          1.6520    15.9000    -0.1320 ha         1 D3C       0.160000
     51 HAM3        -1.1620    10.2420    -1.0030 hn         1 D3C       0.233800
@<TRIPOS>BOND
     1     1     2 1   
     2     2     3 1   
     3     2     4 1   
     4     2     5 1   
     5     5     6 2   
     6     5    10 1   
     7     6     7 1   
     8     6    31 1   
     9     7     8 2   
    10     7    32 1   
    11     8     9 1   
    12     8    10 1   
    13     9    13 1   
    14     9    33 1   
    15     9    34 1   
    16    10    11 1   
    17    11    12 1   
    18    11    35 1   
    19    11    36 1   
    20    12    13 1   
    21    12    37 1   
    22    12    38 1   
    23    13    14 1   
    24    14    15 2   
    25    14    16 1   
    26    16    17 1   
    27    16    39 1   
    28    17    18 1   
    29    17    40 1   
    30    17    41 1   
    31    18    19 1   
    32    18    42 1   
    33    18    43 1   
    34    19    20 1   
    35    19    21 1   
    36    19    44 1   
    37    20    45 1   
    38    20    46 1   
    39    20    51 1   
    40    21    22 1   
    41    21    47 1   
    42    21    48 1   
    43    22    23 ar  
    44    22    29 ar  
    45    23    24 ar  
    46    23    49 1   
    47    24    25 1   
    48    24    26 ar  
    49    26    27 1   
    50    26    28 ar  
    51    28    29 ar  
    52    28    50 1   
    53    29    30 1   
@<TRIPOS>SUBSTRUCTURE
     1 D3C         1 TEMP              0 ****  ****    0 ROOT
