@<TRIPOS>MOLECULE
molecule
  127   126     1     0     0
SMALL
bcc


@<TRIPOS>ATOM
      1 P            0.0000     0.0000     0.0000 p5         1 D3D       1.368800
      2 C1          -0.2370    19.9800    -1.0520 c3         1 D3D      -0.084400
      3 C2          -0.5950    18.5740    -1.5390 c3         1 D3D      -0.081400
      4 C3           0.2910    17.5480    -0.8310 c3         1 D3D      -0.082400
      5 C4          -0.0680    16.1430    -1.3190 c3         1 D3D      -0.082400
      6 C5           0.8180    15.1160    -0.6100 c3         1 D3D      -0.082400
      7 C6           0.4600    13.7100    -1.0980 c3         1 D3D      -0.082400
      8 C7           1.3460    12.6830    -0.3900 c3         1 D3D      -0.082400
      9 C8           0.9870    11.2780    -0.8760 c3         1 D3D      -0.082400
     10 C9           1.8730    10.2510    -0.1680 c3         1 D3D      -0.082400
     11 C10          1.5140     8.8460    -0.6560 c3         1 D3D      -0.082400
     12 C11          2.4010     7.8190     0.0530 c3         1 D3D      -0.080400
     13 C12          2.0420     6.4130    -0.4350 c3         1 D3D      -0.084400
     14 C13          2.9270     5.3870     0.2740 c3         1 D3D      -0.070400
     15 C14          2.5700     3.9820    -0.2140 c3         1 D3D      -0.129400
     16 C15          3.4420     2.9700     0.4840 c          1 D3D       0.633100
     17 C16          4.1770     0.7460     0.9210 c3         1 D3D       0.160400
     18 C17          3.8750    -0.6890     0.4820 c3         1 D3D       0.138100
     19 C18          2.3880    -0.9810     0.6870 c3         1 D3D       0.215400
     20 C19         -1.9220     1.6580    -0.8370 c3         1 D3D       0.239400
     21 C20         -2.0810     2.9600    -1.6250 c3         1 D3D       0.142100
     22 C21         -3.5690     3.2620    -1.8150 c3         1 D3D       0.097400
     23 C23          4.9700    -2.3050    -2.7630 c3         1 D3D      -0.126400
     24 C24          5.3810    -3.7680    -2.9490 c3         1 D3D      -0.072400
     25 C25          5.7510    -4.0110    -4.4140 c3         1 D3D      -0.084400
     26 C26          6.1620    -5.4720    -4.6000 c3         1 D3D      -0.080400
     27 C27          6.5320    -5.7160    -6.0630 c3         1 D3D      -0.083400
     28 C28          6.9440    -7.1780    -6.2490 c3         1 D3D      -0.077400
     29 C29          7.3140    -7.4210    -7.7150 c3         1 D3D      -0.049200
     30 C30          7.7190    -8.8620    -7.8970 c2         1 D3D      -0.171200
     31 C31          7.1180    -9.6020    -8.7950 c2         1 D3D      -0.182200
     32 C32          7.5220   -11.0420    -8.9790 c3         1 D3D      -0.046200
     33 C33          6.2930   -11.9400    -8.8310 c3         1 D3D      -0.077400
     34 C34          6.7040   -13.4010    -9.0180 c3         1 D3D      -0.082400
     35 O9           4.6680    -2.9710    -0.5230 o          1 D3D      -0.571000
     36 C35          5.4740   -14.3010    -8.8710 c3         1 D3D      -0.081400
     37 C36          5.8860   -15.7620    -9.0560 c3         1 D3D      -0.082400
     38 C37          4.6560   -16.6600    -8.9100 c3         1 D3D      -0.082400
     39 O8           4.2110    -0.8460    -0.9210 os         1 D3D      -0.399900
     40 O2           1.6090     0.0000     0.0000 os         1 D3D      -0.583200
     41 O4          -0.4940     0.0000     1.3950 o          1 D3D      -0.828500
     42 O5          -0.5370     1.3150    -0.7590 os         1 D3D      -0.594200
     43 O7          -3.7190     4.4120    -2.6490 oh         1 D3D      -0.624800
     44 O6          -1.4660     4.0300    -0.9050 oh         1 D3D      -0.593800
     45 O3          -0.5370    -1.3140    -0.7590 o          1 D3D      -0.828500
     46 O            4.2660     3.3360     1.2880 o          1 D3D      -0.595000
     47 C           -1.1220    21.0060    -1.7600 c3         1 D3D      -0.092100
     48 H4          -0.3960    20.0430     0.0180 hc         1 D3D       0.039200
     49 H3           0.8030    20.1860    -1.2750 hc         1 D3D       0.039200
     50 H5          -1.6350    18.3690    -1.3150 hc         1 D3D       0.040700
     51 H6          -0.4370    18.5120    -2.6090 hc         1 D3D       0.040700
     52 H7           1.3310    17.7530    -1.0550 hc         1 D3D       0.040200
     53 H8           0.1330    17.6100     0.2390 hc         1 D3D       0.040200
     54 H10          0.0910    16.0800    -2.3880 hc         1 D3D       0.041200
     55 H9          -1.1080    15.9380    -1.0950 hc         1 D3D       0.041200
     56 H12          0.6590    15.1780     0.4600 hc         1 D3D       0.040200
     57 H11          1.8580    15.3210    -0.8320 hc         1 D3D       0.040200
     58 H13         -0.5800    13.5050    -0.8750 hc         1 D3D       0.041200
     59 H14          0.6190    13.6480    -2.1680 hc         1 D3D       0.041200
     60 H15          2.3860    12.8880    -0.6130 hc         1 D3D       0.039700
     61 H16          1.1870    12.7460     0.6800 hc         1 D3D       0.039700
     62 H18         -0.0530    11.0730    -0.6530 hc         1 D3D       0.041200
     63 H17          1.1460    11.2150    -1.9460 hc         1 D3D       0.041200
     64 H19          2.9130    10.4560    -0.3910 hc         1 D3D       0.039200
     65 H20          1.7140    10.3130     0.9020 hc         1 D3D       0.039200
     66 H22          1.6740     8.7840    -1.7260 hc         1 D3D       0.041700
     67 H21          0.4740     8.6410    -0.4330 hc         1 D3D       0.041700
     68 H24          3.4410     8.0240    -0.1700 hc         1 D3D       0.039700
     69 H23          2.2420     7.8820     1.1230 hc         1 D3D       0.039700
     70 H25          2.2010     6.3500    -1.5050 hc         1 D3D       0.044700
     71 H26          1.0020     6.2080    -0.2120 hc         1 D3D       0.044700
     72 H28          3.9670     5.5930     0.0510 hc         1 D3D       0.049700
     73 H27          2.7680     5.4500     1.3430 hc         1 D3D       0.049700
     74 H29          1.5300     3.7760     0.0090 hc         1 D3D       0.086200
     75 H30          2.7290     3.9190    -1.2840 hc         1 D3D       0.086200
     76 H32          5.2100     0.9820     0.6940 h1         1 D3D       0.046700
     77 H31          4.0110     0.8400     1.9870 h1         1 D3D       0.046700
     78 H33          4.4640    -1.3790     1.0740 h1         1 D3D       0.070700
     79 H35          2.1560    -0.9500     1.7450 h1         1 D3D       0.045200
     80 H34          2.1560    -1.9640     0.2960 h1         1 D3D       0.045200
     81 H38         -2.4630     0.8650    -1.3390 h1         1 D3D       0.039200
     82 H37         -2.3190     1.7900     0.1620 h1         1 D3D       0.039200
     83 H39         -1.6070     2.8570    -2.5930 h1         1 D3D       0.046700
     84 H41         -4.0250     3.4530    -0.8510 h1         1 D3D       0.030200
     85 H42         -4.0530     2.4120    -2.2810 h1         1 D3D       0.030200
     86 H45          4.1150    -2.0880    -3.3920 hc         1 D3D       0.071200
     87 H44          5.7950    -1.6600    -3.0380 hc         1 D3D       0.071200
     88 H47          6.2360    -3.9850    -2.3200 hc         1 D3D       0.058200
     89 H46          4.5560    -4.4130    -2.6730 hc         1 D3D       0.058200
     90 H48          6.5760    -3.3660    -4.6900 hc         1 D3D       0.039700
     91 H49          4.8960    -3.7930    -5.0430 hc         1 D3D       0.039700
     92 H50          5.3370    -6.1180    -4.3240 hc         1 D3D       0.043200
     93 H51          7.0170    -5.6900    -3.9700 hc         1 D3D       0.043200
     94 H52          5.6780    -5.4980    -6.6930 hc         1 D3D       0.040200
     95 H53          7.3580    -5.0710    -6.3400 hc         1 D3D       0.040200
     96 H54          6.1190    -7.8240    -5.9730 hc         1 D3D       0.043700
     97 H55          7.7990    -7.3960    -5.6200 hc         1 D3D       0.043700
     98 H56          6.4590    -7.2040    -8.3440 hc         1 D3D       0.045700
     99 H57          8.1390    -6.7760    -7.9910 hc         1 D3D       0.045700
    100 H58          8.5070    -9.2850    -7.2860 ha         1 D3D       0.122000
    101 H59          6.3300    -9.1780    -9.4060 ha         1 D3D       0.124000
    102 H60          7.9490   -11.1740    -9.9660 hc         1 D3D       0.043200
    103 H61          8.2570   -11.3090    -8.2290 hc         1 D3D       0.043200
    104 H63          5.5590   -11.6730    -9.5820 hc         1 D3D       0.044700
    105 H62          5.8660   -11.8080    -7.8450 hc         1 D3D       0.044700
    106 H64          7.1320   -13.5330   -10.0040 hc         1 D3D       0.039700
    107 H65          7.4380   -13.6690    -8.2680 hc         1 D3D       0.039700
    108 H66          4.7400   -14.0340    -9.6210 hc         1 D3D       0.042700
    109 H67          5.0460   -14.1690    -7.8840 hc         1 D3D       0.042700
    110 H69          6.6190   -16.0290    -8.3060 hc         1 D3D       0.039700
    111 H68          6.3140   -15.8940   -10.0430 hc         1 D3D       0.039700
    112 H36          4.2280   -16.5280    -7.9230 hc         1 D3D       0.041700
    113 H71          3.9220   -16.3940    -9.6600 hc         1 D3D       0.041700
    114 H43         -4.6130     4.4740    -2.9420 ho         1 D3D       0.395000
    115 H40         -1.4490     4.8030    -1.4440 ho         1 D3D       0.393000
    116 H           -2.1620    20.8060    -1.5300 hc         1 D3D       0.031367
    117 H1          -0.8630    22.0020    -1.4220 hc         1 D3D       0.031367
    118 H2          -0.9690    20.9380    -2.8310 hc         1 D3D       0.031367
    119 C38          5.0680   -18.1230    -9.0960 c3         1 D3D      -0.084400
    120 C39          3.8380   -19.0210    -8.9480 c3         1 D3D      -0.092100
    121 H70          5.8020   -18.3900    -8.3450 hc         1 D3D       0.039200
    122 H73          5.4950   -18.2550   -10.0820 hc         1 D3D       0.039200
    123 H74          3.1110   -18.7660    -9.7100 hc         1 D3D       0.032033
    124 H75          3.4000   -18.8760    -7.9680 hc         1 D3D       0.032033
    125 H76          4.1320   -20.0580    -9.0620 hc         1 D3D       0.032033
    126 C22          4.6050    -2.0660    -1.3210 c          1 D3D       0.636100
    127 O1           3.3030     1.6630     0.2110 os         1 D3D      -0.357900
@<TRIPOS>BOND
     1    10     9 1
     2    10    11 1
     3     9     8 1
     4    11    12 1
     5    12    13 1
     6     5     4 1
     7     5     6 1
     8     8     7 1
     9     7     6 1
    10     4     3 1
    11     3     2 1
    12    13    14 1
    13    14    15 1
    14     2    47 1
    15    15    16 1
    16    46    16 2
    17    16   127 1
    18   127    17 1
    19    17    18 1
    20    35   126 2
    21    18    39 1
    22    18    19 1
    23   126    39 1
    24   126    23 1
    25    24    23 1
    26    24    25 1
    27    25    26 1
    28    19    40 1
    29    41     1 1
    30    40     1 1
    31    26    27 1
    32    27    28 1
    33     1    42 1
    34     1    45 1
    35    20    42 1
    36    20    21 1
    37    22    21 1
    38    22    43 1
    39    28    29 1
    40    21    44 1
    41    29    30 1
    42    30    31 2
    43    31    32 1
    44    32    33 1
    45    33    34 1
    46    34    36 1
    47    36    37 1
    48    37    38 1
    49     2    48 1
    50     2    49 1
    51     3    50 1
    52     3    51 1
    53     4    52 1
    54     4    53 1
    55     5    54 1
    56     5    55 1
    57     6    56 1
    58     6    57 1
    59     7    58 1
    60     7    59 1
    61     8    60 1
    62     8    61 1
    63     9    62 1
    64     9    63 1
    65    10    64 1
    66    10    65 1
    67    11    66 1
    68    11    67 1
    69    12    68 1
    70    12    69 1
    71    13    70 1
    72    13    71 1
    73    14    72 1
    74    14    73 1
    75    15    74 1
    76    15    75 1
    77    17    76 1
    78    17    77 1
    79    18    78 1
    80    19    79 1
    81    19    80 1
    82    20    81 1
    83    20    82 1
    84    21    83 1
    85    22    84 1
    86    22    85 1
    87    23    86 1
    88    23    87 1
    89    24    88 1
    90    24    89 1
    91    25    90 1
    92    25    91 1
    93    26    92 1
    94    26    93 1
    95    27    94 1
    96    27    95 1
    97    28    96 1
    98    28    97 1
    99    29    98 1
   100    29    99 1
   101    30   100 1
   102    31   101 1
   103    32   102 1
   104    32   103 1
   105    33   104 1
   106    33   105 1
   107    34   106 1
   108    34   107 1
   109    36   108 1
   110    36   109 1
   111    37   110 1
   112    37   111 1
   113    38   112 1
   114    38   113 1
   115    43   114 1
   116    44   115 1
   117    47   116 1
   118    47   117 1
   119    47   118 1
   120    38   119 1
   121   119   120 1
   122   119   121 1
   123   119   122 1
   124   120   123 1
   125   120   124 1
   126   120   125 1
@<TRIPOS>SUBSTRUCTURE
     1 D3D         1 TEMP              0 ****  ****    0 ROOT
