@<TRIPOS>MOLECULE
D3E
   58    61     1     0     0
SMALL
bcc


@<TRIPOS>ATOM
      1 F25          0.0000     0.0000     0.0000 f          1 D3E      -0.203967
      2 C21          1.3990     0.0000     0.0000 c3         1 D3E       0.550900
      3 F23          1.8660    -1.1420    -0.6590 f          1 D3E      -0.203967
      4 F24          1.8660     1.1420    -0.6590 f          1 D3E      -0.203967
      5 C2           1.9090     0.0000     1.4430 c3         1 D3E       0.177100
      6 C1           1.2960    -1.1800     2.2000 c3         1 D3E      -0.038100
      7 O22          3.3340    -0.1200     1.4450 oh         1 D3E      -0.565800
      8 C3           1.5130     1.2900     2.1160 ca         1 D3E      -0.098300
      9 C8           0.1760     1.5730     2.3270 ca         1 D3E      -0.085000
     10 C7          -0.1940     2.7520     2.9430 ca         1 D3E      -0.146500
     11 C6           0.7860     3.6580     3.3520 ca         1 D3E      -0.139600
     12 C5           2.1330     3.3660     3.1350 ca         1 D3E      -0.146500
     13 C4           2.4890     2.1810     2.5230 ca         1 D3E      -0.085000
     14 C9           0.3970     4.9230     4.0110 c          1 D3E       0.627700
     15 O11         -0.6310     4.9810     4.6560 o          1 D3E      -0.616100
     16 N10          1.1840     6.0110     3.8980 n          1 D3E      -0.126800
     17 C12          0.5820     7.3330     3.7090 cx         1 D3E      -0.049300
     18 C14         -0.3750     7.8360     4.7910 cx         1 D3E      -0.093900
     19 C13         -0.9210     7.3920     3.4330 cx         1 D3E      -0.093900
     20 C15          2.6410     5.8720     3.9650 c3         1 D3E       0.047700
     21 C20          3.1870     5.5580     2.5710 c3         1 D3E      -0.161400
     22 C19          4.7090     5.4130     2.6400 c3         1 D3E      -0.013400
     23 C18          5.0700     4.2750     3.5970 c3         1 D3E      -0.015400
     24 C17          4.5230     4.5900     4.9920 c3         1 D3E      -0.013400
     25 C16          3.0020     4.7340     4.9220 c3         1 D3E      -0.161400
     26 C26          6.5690     4.1320     3.6650 ca         1 D3E      -0.203600
     27 C31          7.1770     2.9430     3.2980 ca         1 D3E      -0.064000
     28 C30          8.5590     2.8570     3.3760 ca         1 D3E      -0.218300
     29 C29          9.2780     3.9520     3.8150 ca         1 D3E       0.401200
     30 N28          8.6650     5.0680     4.1590 nb         1 D3E      -0.578000
     31 C27          7.3530     5.1870     4.0910 ca         1 D3E       0.403200
     32 H1           0.2190    -1.1590     2.0900 hc         1 D3E       0.029367
     33 H1A          1.5530    -1.1070     3.2500 hc         1 D3E       0.029367
     34 H1B          1.6830    -2.1080     1.7970 hc         1 D3E       0.029367
     35 HO22         3.5730    -1.0230     1.3150 ho         1 D3E       0.408000
     36 H8          -0.5830     0.8680     2.0090 ha         1 D3E       0.125500
     37 H7          -1.2410     2.9730     3.1090 ha         1 D3E       0.195000
     38 H5           2.8980     4.0640     3.4520 ha         1 D3E       0.195000
     39 H4           3.5350     1.9520     2.3550 ha         1 D3E       0.125500
     40 H12          1.1630     8.1070     3.2220 h1         1 D3E       0.068700
     41 H14         -0.3650     8.9050     4.9640 hc         1 D3E       0.059450
     42 H14A        -0.5530     7.1520     5.6120 hc         1 D3E       0.059450
     43 H13         -1.2450     8.1900     2.7760 hc         1 D3E       0.059450
     44 H13A        -1.4330     6.4370     3.4240 hc         1 D3E       0.059450
     45 H15          3.0810     6.7960     4.3230 h1         1 D3E       0.045700
     46 H20          2.7530     4.6320     2.2140 hc         1 D3E       0.072950
     47 H20A         2.9330     6.3650     1.8940 hc         1 D3E       0.072950
     48 H19          5.0940     5.1880     1.6520 hc         1 D3E       0.024700
     49 H19A         5.1420     6.3380     3.0000 hc         1 D3E       0.024700
     50 H18          4.6310     3.3520     3.2400 hc         1 D3E       0.046700
     51 H17          4.7770     3.7830     5.6680 hc         1 D3E       0.024700
     52 H17A         4.9560     5.5160     5.3480 hc         1 D3E       0.024700
     53 H16          2.6170     4.9590     5.9090 hc         1 D3E       0.072950
     54 H16A         2.5690     3.8090     4.5620 hc         1 D3E       0.072950
     55 H31          6.5880     2.1000     2.9570 ha         1 D3E       0.112000
     56 H30          9.0690     1.9430     3.0960 ha         1 D3E       0.113000
     57 H29         10.3580     3.8920     3.8820 h4         1 D3E      -0.019900
     58 H27          6.8850     6.1200     4.3810 h4         1 D3E      -0.014900
@<TRIPOS>BOND
     1     1     2 1   
     2     2     3 1   
     3     2     4 1   
     4     2     5 1   
     5     5     6 1   
     6     5     7 1   
     7     5     8 1   
     8     6    32 1   
     9     6    33 1   
    10     6    34 1   
    11     7    35 1   
    12     8     9 ar  
    13     8    13 ar  
    14     9    10 ar  
    15     9    36 1   
    16    10    11 ar  
    17    10    37 1   
    18    11    12 ar  
    19    11    14 1   
    20    12    13 ar  
    21    12    38 1   
    22    13    39 1   
    23    14    15 2   
    24    14    16 1   
    25    16    17 1   
    26    16    20 1   
    27    17    18 1   
    28    17    19 1   
    29    17    40 1   
    30    18    19 1   
    31    18    41 1   
    32    18    42 1   
    33    19    43 1   
    34    19    44 1   
    35    20    21 1   
    36    20    25 1   
    37    20    45 1   
    38    21    22 1   
    39    21    46 1   
    40    21    47 1   
    41    22    23 1   
    42    22    48 1   
    43    22    49 1   
    44    23    24 1   
    45    23    26 1   
    46    23    50 1   
    47    24    25 1   
    48    24    51 1   
    49    24    52 1   
    50    25    53 1   
    51    25    54 1   
    52    26    27 ar  
    53    26    31 ar  
    54    27    28 ar  
    55    27    55 1   
    56    28    29 ar  
    57    28    56 1   
    58    29    30 ar  
    59    29    57 1   
    60    30    31 ar  
    61    31    58 1   
@<TRIPOS>SUBSTRUCTURE
     1 D3E         1 TEMP              0 ****  ****    0 ROOT
