@<TRIPOS>MOLECULE
molecule
   35    36     1     0     0
SMALL
bcc


@<TRIPOS>ATOM
      1 C1           0.0000     0.0000     0.0000 ca         1 D3F       0.083400
      2 C2           1.3840     0.0000     0.0000 ca         1 D3F      -0.116000
      3 C3           2.0750     0.0000     1.1980 ca         1 D3F       0.103400
      4 C4           1.3820     0.0040     2.3960 ca         1 D3F      -0.272500
      5 C5          -0.0000     0.0080     2.3960 ca         1 D3F       0.006000
      6 C6          -0.6910     0.0100     1.1990 ca         1 D3F      -0.079300
      7 C7          -2.1980     0.0160     1.1990 c3         1 D3F      -0.050800
      8 S1           2.2620     0.0010     3.9230 sy         1 D3F       1.264600
      9 O1           2.4340    -1.3660     4.2670 o          1 D3F      -0.572800
     10 O2           1.6300     0.9820     4.7340 o          1 D3F      -0.572800
     11 C8           3.8800     0.6200     3.5980 ca         1 D3F      -0.179500
     12 C9           4.9450    -0.2540     3.4870 ca         1 D3F      -0.057700
     13 C10          6.2130     0.2310     3.2290 ca         1 D3F      -0.037000
     14 C11          6.4180     1.5910     3.0900 ca         1 D3F      -0.133300
     15 C12          5.3540     2.4660     3.2060 ca         1 D3F      -0.037000
     16 C13          4.0850     1.9810     3.4600 ca         1 D3F      -0.057700
     17 N1           2.9460     2.9170     3.5860 no         1 D3F       0.278200
     18 O3           2.8970     3.6950     4.5220 o          1 D3F      -0.149000
     19 O4           2.0580     2.9100     2.7520 o          1 D3F      -0.149000
     20 C14          7.8010     2.1200     2.8120 c3         1 D3F       0.679200
     21 F1           8.4520     2.3820     4.0220 f          1 D3F      -0.207967
     22 F2           8.5270     1.1680     2.0890 f          1 D3F      -0.207967
     23 F3           7.7080     3.3010     2.0660 f          1 D3F      -0.207967
     24 N2           4.7250    -1.7100     3.6350 no         1 D3F       0.278200
     25 O5           4.3140    -2.1600     4.6890 o          1 D3F      -0.149000
     26 O6           4.9570    -2.4590     2.7020 o          1 D3F      -0.149000
     27 Cl1          3.8110    -0.0070     1.1990 cl         1 D3F      -0.095400
     28 Cl2         -0.8680     0.0000    -1.5030 cl         1 D3F      -0.076400
     29 H2           1.9250    -0.0050    -0.9380 ha         1 D3F       0.165000
     30 H5          -0.5420     0.0130     3.3340 ha         1 D3F       0.161000
     31 H71         -2.5630    -0.8710     0.6940 hc         1 D3F       0.057033
     32 H72         -2.5600     0.0240     2.2200 hc         1 D3F       0.057033
     33 H73         -2.5560     0.8980     0.6810 hc         1 D3F       0.057033
     34 H10          7.0480    -0.4540     3.1400 ha         1 D3F       0.184500
     35 H12          5.5140     3.5320     3.0980 ha         1 D3F       0.184500
@<TRIPOS>BOND
     1     1     2 ar
     2     1     6 ar
     3     1    28 1
     4     2     3 ar
     5     2    29 1
     6     3     4 ar
     7     3    27 1
     8     4     5 ar
     9     4     8 1
    10     5     6 ar
    11     5    30 1
    12     6     7 1
    13     7    31 1
    14     7    32 1
    15     7    33 1
    16     8     9 2
    17     8    10 2
    18     8    11 1
    19    11    12 ar
    20    11    16 ar
    21    12    13 ar
    22    12    24 1
    23    13    14 ar
    24    13    34 1
    25    14    15 ar
    26    14    20 1
    27    15    16 ar
    28    15    35 1
    29    16    17 1
    30    17    18 1
    31    17    19 1
    32    20    21 1
    33    20    22 1
    34    20    23 1
    35    24    25 1
    36    24    26 1
@<TRIPOS>SUBSTRUCTURE
     1 D3F         1 TEMP              0 ****  ****    0 ROOT
