@<TRIPOS>MOLECULE
D3G
   24    25     1     0     0
SMALL
bcc


@<TRIPOS>ATOM
      1 C_1        -0.1970   -0.5290    0.1120 ca        1 D3G     -0.053000
      2 C_2         1.1830   -0.4490   -0.0540 ca        1 D3G     -0.245300
      3 C_3         1.9460    0.1990    0.9390 ca        1 D3G      0.439200
      4 N_1         1.4070    0.7480    2.0450 nb        1 D3G     -0.649000
      5 C_4         0.0760    0.6670    2.1990 ca        1 D3G      0.446200
      6 C_5        -0.7790    0.0380    1.2600 ca        1 D3G     -0.307800
      7 C_6        -2.1920   -0.0160    1.5080 cc        1 D3G      0.416200
      8 C_7        -2.9660    0.2590    2.6350 cd        1 D3G     -0.275300
      9 C_8        -4.3360    0.0330    2.2730 cd        1 D3G     -0.115300
     10 C_9        -4.3380   -0.3710    0.9470 cc        1 D3G      0.067000
     11 O_1        -3.0190   -0.4100    0.4490 os        1 D3G     -0.379800
     12 C10        -5.3700   -0.8250    0.0170 c3        1 D3G      0.118500
     13 N_2        -5.5390    0.1570   -1.1130 n4        1 D3G     -0.849600
     14 H_1        -0.8260   -1.0340   -0.6360 ha        1 D3G      0.144000
     15 H_2         1.6750   -0.8840   -0.9350 ha        1 D3G      0.163000
     16 H_3         3.0460    0.2830    0.8480 h4        1 D3G      0.046100
     17 H_4        -0.3330    1.1270    3.1180 h4        1 D3G      0.035100
     18 H_7        -2.6090    0.5750    3.6150 ha        1 D3G      0.193000
     19 H_8        -5.1960    0.1490    2.9330 ha        1 D3G      0.182000
     20 H101       -5.0860   -1.8160   -0.4500 hx        1 D3G      0.122700
     21 H102       -6.3610   -0.9260    0.5480 hx        1 D3G      0.122700
     22 H_21       -4.6370    0.2880   -1.5850 hn        1 D3G      0.460467
     23 H_22       -6.2290   -0.1870   -1.7850 hn        1 D3G      0.460467
     24 H_23       -5.8440    1.0650   -0.7480 hn        1 D3G      0.460467
@<TRIPOS>BOND
     1    1    2 ar
     2    1    6 ar
     3    1   14 1
     4    2    3 ar
     5    2   15 1
     6    3    4 ar
     7    3   16 1
     8    4    5 ar
     9    5    6 ar
    10    5   17 1
    11    6    7 1
    12    7    8 2
    13    7   11 1
    14    8    9 1
    15    8   18 1
    16    9   10 2
    17    9   19 1
    18   10   11 1
    19   10   12 1
    20   12   13 1
    21   12   20 1
    22   12   21 1
    23   13   22 1
    24   13   23 1
    25   13   24 1
@<TRIPOS>SUBSTRUCTURE
     1 D3G         1 TEMP              0 ****  ****    0 ROOT
