@<TRIPOS>MOLECULE
D3H
   24    24     1     0     0
SMALL
bcc


@<TRIPOS>ATOM
      1 C4           0.0000     0.0000     0.0000 ca         1 D3H      -0.245400
      2 C5           1.3890     0.0000     0.0000 ca         1 D3H      -0.027000
      3 C6           2.0790     0.0000     1.1960 ca         1 D3H      -0.173500
      4 C8          -2.6920     0.5260    -2.5800 c3         1 D3H      -0.134200
      5 N1          -0.7000    -0.0070    -1.2140 ns         1 D3H       0.099900
      6 N2          -3.9280     1.3070    -2.4370 nz         1 D3H       0.117400
      7 C3          -0.6940     0.0000     1.2020 ca         1 D3H      -0.027000
      8 C2          -0.0040     0.0010     2.3980 ca         1 D3H      -0.173500
      9 C1           1.3840     0.0020     2.3990 ca         1 D3H       0.079600
     10 O1          -2.2950     1.2920    -0.3830 o          1 D3H      -0.651100
     11 H1           1.9310    -0.0010    -0.9380 ha         1 D3H       0.111500
     12 H2           3.1630     0.0000     1.1960 ha         1 D3H       0.121500
     13 H3          -2.1200     0.9040    -3.4190 hx         1 D3H       0.089700
     14 H4          -2.9390    -0.5150    -2.7520 hx         1 D3H       0.089700
     15 H5          -0.3340    -0.5080    -1.9990 hn         1 D3H       0.161500
     16 H6          -3.7000     2.2580    -2.2260 hn         1 D3H       0.226800
     17 H7          -4.4470     1.2700    -3.2920 hn         1 D3H       0.226800
     18 H9          -1.7770     0.0000     1.2010 ha         1 D3H       0.111500
     19 H10          1.5830     0.0030     4.4770 hn         1 D3H       0.274300
     20 H11          3.0840     0.0020     3.6100 hn         1 D3H       0.274300
     21 H12         -0.5460     0.0020     3.3360 ha         1 D3H       0.121500
     22 N3           2.0840     0.0020     3.6100 nv         1 D3H      -0.410200
     23 C7          -1.8820     0.6320    -1.3140 c          1 D3H       0.508100
     24 H23         -4.4900     0.9120    -1.7090 hn         1 D3H       0.226800
@<TRIPOS>BOND
     1     1     2 ar  
     2     1     5 1   
     3     1     7 ar  
     4     2     3 ar  
     5     2    11 1   
     6     3     9 ar  
     7     3    12 1   
     8     4     6 1   
     9     4    13 1   
    10     4    14 1   
    11     4    23 1   
    12     5    15 1   
    13     5    23 1   
    14     6    16 1   
    15     6    17 1   
    16     6    24 1   
    17     7     8 ar  
    18     7    18 1   
    19     8     9 ar  
    20     8    21 1   
    21     9    22 1   
    22    10    23 2   
    23    19    22 1   
    24    20    22 1   
@<TRIPOS>SUBSTRUCTURE
     1 D3H         1 TEMP              0 ****  ****    0 ROOT
