@<TRIPOS>MOLECULE
D3J
   53    57     1     0     0
SMALL
bcc


@<TRIPOS>ATOM
      1 C4           0.0000     0.0000     0.0000 ca         1 D3J      -0.131500
      2 C14          3.9750    -3.6890     1.1230 c          1 D3J       0.649700
      3 C5           1.3860     0.0110     2.3980 ca         1 D3J      -0.095500
      4 C6           2.0790     0.0000     1.2030 ca         1 D3J      -0.131500
      5 C11          5.2680    -1.1650    -0.2190 ca         1 D3J       0.366600
      6 C7           1.3880     0.0000     0.0000 ca         1 D3J       0.129100
      7 C9           3.4170    -0.1340    -1.1310 ca         1 D3J       0.606600
      8 C12          5.8390    -2.1570     0.7620 c3         1 D3J       0.049400
      9 C3          -0.6900     0.0050     1.1960 ca         1 D3J      -0.095500
     10 C2           0.0010     0.0110     2.3960 ca         1 D3J       0.076900
     11 O8           2.0670    -0.0000    -1.1760 os         1 D3J      -0.323400
     12 N10          3.9610    -0.9990    -0.2900 nb         1 D3J      -0.597000
     13 N13          4.7520    -2.6910     1.5830 ns         1 D3J      -0.179900
     14 C15          4.3030    -4.3410    -0.1480 ce         1 D3J      -0.102600
     15 S16          3.1260    -5.3840    -0.9410 ss         1 D3J      -0.243500
     16 C17          3.0410    -6.7760     0.1360 ca         1 D3J       0.071900
     17 C18          2.2680    -7.8790    -0.2110 ca         1 D3J      -0.018600
     18 C19          2.2040    -8.9700     0.6360 ca         1 D3J      -0.093000
     19 C20          2.9090    -8.9630     1.8270 ca         1 D3J      -0.098000
     20 C21          3.6790    -7.8680     2.1740 ca         1 D3J      -0.089000
     21 C22          3.7510    -6.7770     1.3300 ca         1 D3J      -0.100000
     22 Cl23         1.3830    -7.8860    -1.7040 cl         1 D3J      -0.004400
     23 C24          5.5130    -4.1360    -0.7060 c2         1 D3J       0.172900
     24 O25          5.8110    -4.7010    -1.8970 oh         1 D3J      -0.471100
     25 C26          6.5300    -3.2780    -0.0020 c3         1 D3J      -0.027200
     26 C28          6.8420    -1.4640     1.6470 cc         1 D3J      -0.131300
     27 C29          8.1370    -1.3790     1.3350 cd         1 D3J       0.001900
     28 S30          8.9900    -0.4980     2.5960 ss         1 D3J      -0.253800
     29 C31          7.4970    -0.2870     3.5010 cd         1 D3J       0.025900
     30 C32          6.4890    -0.8610     2.8420 cc         1 D3J      -0.131000
     31 C33          6.1200    -0.4370    -1.0250 ca         1 D3J      -0.233300
     32 C34          5.5880     0.4760    -1.9260 ca         1 D3J      -0.036000
     33 C35          4.2130     0.6240    -1.9800 ca         1 D3J      -0.222300
     34 H1          -0.5420    -0.0020    -0.9380 ha         1 D3J       0.127000
     35 H2           1.9260     0.0130     3.3370 ha         1 D3J       0.116000
     36 H3           3.1620    -0.0000     1.2050 ha         1 D3J       0.127000
     37 H4          -1.7730     0.0050     1.1960 ha         1 D3J       0.116000
     38 H5           4.5850    -2.3110     2.4930 hn         1 D3J       0.198500
     39 H6           1.6020    -9.8290     0.3680 ha         1 D3J       0.114000
     40 H7           2.8560    -9.8180     2.4900 ha         1 D3J       0.104000
     41 H8           4.2300    -7.8680     3.1060 ha         1 D3J       0.103000
     42 H9           4.3540    -5.9200     1.6030 ha         1 D3J       0.122000
     43 H10          6.3710    -5.4470    -1.7590 ho         1 D3J       0.413000
     44 H11          7.0930    -3.8890     0.6940 hc         1 D3J       0.047700
     45 H12          7.2030    -2.8490    -0.7340 hc         1 D3J       0.047700
     46 H13          8.5930    -1.7900     0.4430 h4         1 D3J       0.156000
     47 H14          7.4100     0.2290     4.4500 h4         1 D3J       0.154000
     48 H15          5.4720    -0.8550     3.2140 ha         1 D3J       0.132000
     49 H16          7.1920    -0.5770    -0.9570 ha         1 D3J       0.123000
     50 H17          6.2340     1.0570    -2.5730 ha         1 D3J       0.114000
     51 H18          3.7630     1.3270    -2.6710 ha         1 D3J       0.129000
     52 F1          -0.6750     0.0160     3.5650 f          1 D3J      -0.129900
     53 O27          3.0050    -4.0520     1.7620 o          1 D3J      -0.653500
@<TRIPOS>BOND
     1     1     6 ar  
     2     1     9 ar  
     3     1    34 1   
     4     2    13 1   
     5     2    14 1   
     6     2    53 2   
     7     3     4 ar  
     8     3    10 ar  
     9     3    35 1   
    10     4     6 ar  
    11     4    36 1   
    12     5     8 1   
    13     5    12 ar  
    14     5    31 ar  
    15     6    11 1   
    16     7    11 1   
    17     7    12 ar  
    18     7    33 ar  
    19     8    13 1   
    20     8    25 1   
    21     8    26 1   
    22     9    10 ar  
    23     9    37 1   
    24    10    52 1   
    25    13    38 1   
    26    14    15 1   
    27    14    23 2   
    28    15    16 1   
    29    16    17 ar  
    30    16    21 ar  
    31    17    18 ar  
    32    17    22 1   
    33    18    19 ar  
    34    18    39 1   
    35    19    20 ar  
    36    19    40 1   
    37    20    21 ar  
    38    20    41 1   
    39    21    42 1   
    40    23    24 1   
    41    23    25 1   
    42    24    43 1   
    43    25    44 1   
    44    25    45 1   
    45    26    27 2   
    46    26    30 1   
    47    27    28 1   
    48    27    46 1   
    49    28    29 1   
    50    29    30 2   
    51    29    47 1   
    52    30    48 1   
    53    31    32 ar  
    54    31    49 1   
    55    32    33 ar  
    56    32    50 1   
    57    33    51 1   
@<TRIPOS>SUBSTRUCTURE
     1 D3J         1 TEMP              0 ****  ****    0 ROOT
