@<TRIPOS>MOLECULE
D3K
   48    50     1     0     0
SMALL
bcc


@<TRIPOS>ATOM
      1 C14          0.0000     0.0000     0.0000 ca         1 D3K      -0.104000
      2 C10          3.8740    -1.6650    -0.6250 ca         1 D3K      -0.074000
      3 C13          1.3830     0.0000     0.0000 ca         1 D3K      -0.065300
      4 C11          2.8440    -1.3170    -1.4790 ca         1 D3K      -0.115300
      5 C12          2.1350     0.0020    -1.3060 c3         1 D3K       0.073900
      6 C01         -0.6130    -0.4560    -6.7060 c3         1 D3K       0.254700
      7 C03         -0.0400    -2.2280    -5.1960 c3         1 D3K       0.207400
      8 C04          1.1140    -2.7800    -4.3560 c3         1 D3K       0.197400
      9 C06          2.4640    -2.1810    -2.4940 ca         1 D3K       0.160100
     10 C07          3.1190    -3.3940    -2.6500 ca         1 D3K      -0.210000
     11 C08          4.1480    -3.7380    -1.7950 ca         1 D3K      -0.060000
     12 C09          4.5260    -2.8740    -0.7840 ca         1 D3K      -0.142000
     13 C15         -0.6910     0.0040     1.1980 ca         1 D3K      -0.099500
     14 C16          0.0010     0.0090     2.3950 ca         1 D3K      -0.109000
     15 C17          1.3830     0.0100     2.3940 ca         1 D3K      -0.099500
     16 C18          2.0740     0.0000     1.1970 ca         1 D3K      -0.104000
     17 C19          3.1610     1.1370    -1.3010 c3         1 D3K       0.119500
     18 C21          3.1980     3.4310    -1.9940 c3         1 D3K       0.146800
     19 C22          4.3570     2.6880    -2.6930 c3         1 D3K      -0.044400
     20 C23          3.8910     1.2090    -2.6660 c3         1 D3K      -0.031400
     21 N20          2.4840     2.4430    -1.1650 n7         1 D3K      -0.579200
     22 O02          0.3940    -1.0550    -5.8880 os         1 D3K      -0.409600
     23 O05          1.4510    -1.8410    -3.3340 os         1 D3K      -0.293900
     24 H1          -0.5420    -0.0040    -0.9380 ha         1 D3K       0.110000
     25 H2           4.1710    -0.9900     0.1680 ha         1 D3K       0.115000
     26 H3           1.4400     0.1480    -2.1230 hc         1 D3K       0.062700
     27 H4          -0.8720    -1.1310    -7.5130 h1         1 D3K      -0.012633
     28 H5          -0.2370     0.4720    -7.1200 h1         1 D3K      -0.012633
     29 H6          -1.4920    -0.2540    -6.1070 h1         1 D3K      -0.012633
     30 H7          -0.3530    -2.9750    -5.9150 h1         1 D3K      -0.001300
     31 H8          -0.8710    -1.9780    -4.5480 h1         1 D3K      -0.001300
     32 H9           0.8140    -3.7160    -3.9020 h1         1 D3K       0.008700
     33 H10          1.9760    -2.9470    -4.9920 h1         1 D3K       0.008700
     34 H11          2.8240    -4.0720    -3.4430 ha         1 D3K       0.118000
     35 H12          4.6600    -4.6850    -1.9180 ha         1 D3K       0.099000
     36 H13          5.3330    -3.1450    -0.1140 ha         1 D3K       0.104000
     37 H14         -1.7740     0.0040     1.1990 ha         1 D3K       0.099500
     38 H15         -0.5400     0.0150     3.3330 ha         1 D3K       0.100000
     39 H16          1.9250     0.0120     3.3320 ha         1 D3K       0.099500
     40 H17          3.1570     0.0000     1.1960 ha         1 D3K       0.110000
     41 H18          3.8780     1.0010    -0.4990 h1         1 D3K       0.016700
     42 H19          3.5920     4.2210    -1.3670 h1         1 D3K       0.010700
     43 H20          2.5240     3.8430    -2.7360 h1         1 D3K       0.010700
     44 H21          4.4700     3.0330    -3.7140 hc         1 D3K       0.016700
     45 H22          5.2780     2.8090    -2.1360 hc         1 D3K       0.016700
     46 H23          4.7410     0.5370    -2.6850 hc         1 D3K       0.031200
     47 H24          3.2070     1.0050    -3.4800 hc         1 D3K       0.031200
     48 H25          2.5070     2.7330    -0.2070 hn         1 D3K       0.252800
@<TRIPOS>BOND
     1     1     3 ar  
     2     1    13 ar  
     3     1    24 1   
     4     2     4 ar  
     5     2    12 ar  
     6     2    25 1   
     7     3     5 1   
     8     3    16 ar  
     9     4     5 1   
    10     4     9 ar  
    11     5    17 1   
    12     5    26 1   
    13     6    22 1   
    14     6    27 1   
    15     6    28 1   
    16     6    29 1   
    17     7     8 1   
    18     7    22 1   
    19     7    30 1   
    20     7    31 1   
    21     8    23 1   
    22     8    32 1   
    23     8    33 1   
    24     9    10 ar  
    25     9    23 1   
    26    10    11 ar  
    27    10    34 1   
    28    11    12 ar  
    29    11    35 1   
    30    12    36 1   
    31    13    14 ar  
    32    13    37 1   
    33    14    15 ar  
    34    14    38 1   
    35    15    16 ar  
    36    15    39 1   
    37    16    40 1   
    38    17    20 1   
    39    17    21 1   
    40    17    41 1   
    41    18    19 1   
    42    18    21 1   
    43    18    42 1   
    44    18    43 1   
    45    19    20 1   
    46    19    44 1   
    47    19    45 1   
    48    20    46 1   
    49    20    47 1   
    50    21    48 1   
@<TRIPOS>SUBSTRUCTURE
     1 D3K         1 TEMP              0 ****  ****    0 ROOT
