@<TRIPOS>MOLECULE
D3M
   18    18     1     0     0
SMALL
bcc


@<TRIPOS>ATOM
      1 CL1        -0.0110   -0.1630    0.1730 cl        1 D3M     -0.130400
      2 CL2         5.9600    0.0760    1.7970 cl        1 D3M     -0.104400
      3 C1          4.0100   -0.0050   -0.0730 ca        1 D3M     -0.102600
      4 O1          5.4780   -1.0930   -1.6100 o         1 D3M     -0.806800
      5 C2          4.3330    0.0210    1.2880 ca        1 D3M      0.042400
      6 O2          5.5840    1.1400   -1.4640 o         1 D3M     -0.806800
      7 C3          3.3440    0.0030    2.2790 ca        1 D3M     -0.151000
      8 O3          2.2450    0.0270   -1.7530 os        1 D3M     -0.335900
      9 C4          2.0040   -0.0480    1.9170 ca        1 D3M     -0.147000
     10 C5          1.6510   -0.0870    0.5650 ca        1 D3M     -0.006600
     11 C6          2.6480   -0.0570   -0.4280 ca        1 D3M      0.125100
     12 C8          2.4790   -1.1620   -2.5100 c3        1 D3M      0.100700
     13 H3          1.2250   -0.0600    2.6920 ha        1 D3M      0.126000
     14 H4          3.6220    0.0290    3.3420 ha        1 D3M      0.127000
     15 H8          3.5420   -1.5000   -2.4110 h1        1 D3M      0.048033
     16 H8A         2.2540   -0.8500   -3.5600 h1        1 D3M      0.048033
     17 H8B         1.7710   -1.9610   -2.1780 h1        1 D3M      0.048033
     18 C7          5.1160    0.0210   -1.1380 c         1 D3M      0.926200
@<TRIPOS>BOND
     1    1   10 1   
     2    2    5 1   
     3    3    5 ar  
     4    3   11 ar  
     5    3   18 1   
     6    4   18 1   
     7    5    7 ar  
     8    6   18 1   
     9    7    9 ar  
    10    7   14 1   
    11    8   11 1   
    12    8   12 1   
    13    9   10 ar  
    14    9   13 1   
    15   10   11 ar  
    16   12   15 1   
    17   12   16 1   
    18   12   17 1   
@<TRIPOS>SUBSTRUCTURE
     1 D3M         1 TEMP              0 ****  ****    0 ROOT
