@<TRIPOS>MOLECULE
molecule
   18    18     1     0     0
SMALL
bcc


@<TRIPOS>ATOM
      1 Cl1          0.0000     0.0000     0.0000 cl         1 D3M      -0.142400
      2 Cl2          5.9540    -0.0010     1.9060 cl         1 D3M      -0.104400
      3 C1           4.0130     0.0000     0.0000 ca         1 D3M      -0.068600
      4 O1           5.6050    -1.1580    -1.4480 o          1 D3M      -0.817300
      5 C2           4.3040     0.0000     1.3680 ca         1 D3M       0.050400
      6 O2           5.5540     1.0610    -1.3920 o          1 D3M      -0.817300
      7 C3           3.2770     0.0000     2.2890 ca         1 D3M      -0.142000
      8 O3           2.3820     0.0020    -1.7480 os         1 D3M      -0.331900
      9 C4           1.9580    -0.0000     1.8660 ca         1 D3M      -0.146000
     10 C5           1.6570     0.0000     0.5170 ca         1 D3M      -0.000600
     11 C6           2.6770     0.0010    -0.4240 ca         1 D3M       0.133100
     12 C8           2.2400    -1.2720    -2.3820 c3         1 D3M       0.144700
     13 H3           3.5030     0.0000     3.3490 ha         1 D3M       0.126000
     14 H4           1.1580     0.0000     2.5970 ha         1 D3M       0.126000
     15 H8           2.5620    -2.0520    -1.7010 h1         1 D3M       0.033700
     16 H8A          1.2010    -1.4310    -2.6460 h1         1 D3M       0.033700
     17 H8B          2.8490    -1.3000    -3.2770 h1         1 D3M       0.033700
     18 C7           5.1040     0.0060    -0.9890 c          1 D3M       0.889200
@<TRIPOS>BOND
     1    10     1 1
     2     2     5 1
     3    18     3 1
     4     5     3 ar
     5     3    11 ar
     6    18     4 1
     7     5     7 ar
     8     6    18 1
     9     7     9 ar
    10     7    13 1
    11    11     8 1
    12     8    12 1
    13     9    10 ar
    14     9    14 1
    15    11    10 ar
    16    12    15 1
    17    12    16 1
    18    12    17 1
@<TRIPOS>SUBSTRUCTURE
     1 D3M         1 TEMP              0 ****  ****    0 ROOT
