@<TRIPOS>MOLECULE
molecule
   41    43     1     0     0
SMALL
bcc


@<TRIPOS>ATOM
      1 C12          0.0000     0.0000     0.0000 ca         1 D3Q      -0.132000
      2 C13          1.3830     0.0000     0.0000 ca         1 D3Q      -0.127500
      3 C14          2.0740     0.0000     1.1970 ca         1 D3Q      -0.124500
      4 C15          3.1650    -1.1350     3.6940 c3         1 D3Q       0.187500
      5 C01          2.6140     5.7430     2.6600 c3         1 D3Q       0.129700
      6 C03          3.2950     3.5440     3.1100 ca         1 D3Q       0.103100
      7 C04          4.1450     3.7390     4.1870 ca         1 D3Q      -0.165000
      8 C05          4.3430     2.7210     5.1060 ca         1 D3Q      -0.114000
      9 C06          3.6920     1.5080     4.9480 ca         1 D3Q      -0.156000
     10 C07          2.8420     1.3170     3.8730 ca         1 D3Q      -0.066300
     11 C08          2.1350    -0.0030     3.7000 c3         1 D3Q       0.027900
     12 C09          1.3830    -0.0020     2.3950 ca         1 D3Q      -0.070300
     13 C10          0.0000    -0.0020     2.3950 ca         1 D3Q      -0.124500
     14 C11         -0.6910    -0.0030     1.1970 ca         1 D3Q      -0.127500
     15 C17          3.1850    -3.4480     4.3230 c3         1 D3Q       0.167800
     16 C18          4.3210    -2.7250     5.0770 c3         1 D3Q      -0.147400
     17 C19          3.8540    -1.2460     5.0760 c3         1 D3Q      -0.068400
     18 C20          2.6440     2.3310     2.9520 ca         1 D3Q      -0.131000
     19 N16          2.4940    -2.4390     3.5010 n7         1 D3Q      -0.882200
     20 H1          -0.5420    -0.0000    -0.9380 ha         1 D3Q       0.128000
     21 H2           1.9240     0.0020    -0.9380 ha         1 D3Q       0.129000
     22 H3           3.1570     0.0000     1.1970 ha         1 D3Q       0.133500
     23 H4           3.9040    -0.9760     2.9180 h1         1 D3Q       0.038700
     24 H5           3.4210     6.3740     3.0100 h1         1 D3Q       0.032367
     25 H6           2.0650     6.2570     1.8800 h1         1 D3Q       0.032367
     26 H7           1.9470     5.5200     3.4840 h1         1 D3Q       0.032367
     27 H8           4.6550     4.6870     4.3110 ha         1 D3Q       0.136000
     28 H9           5.0080     2.8730     5.9480 ha         1 D3Q       0.131000
     29 H10          3.8470     0.7120     5.6670 ha         1 D3Q       0.144000
     30 H11          1.4400    -0.1510     4.5170 hc         1 D3Q       0.078700
     31 H12         -0.5420    -0.0030     3.3330 ha         1 D3Q       0.133500
     32 H13         -1.7740    -0.0030     1.1970 ha         1 D3Q       0.129000
     33 H14          3.5150    -3.7300     3.3300 h1         1 D3Q       0.046200
     34 H15          2.8640    -4.3210     4.8790 h1         1 D3Q       0.046200
     35 H16          4.0640    -2.6160     6.1230 hc         1 D3Q       0.064200
     36 H17          5.2490    -3.2730     4.9680 hc         1 D3Q       0.064200
     37 H18          3.1930    -0.8800     5.8530 hc         1 D3Q       0.056700
     38 H19          4.7840    -0.6900     5.0760 hc         1 D3Q       0.056700
     39 H20          1.9790     2.1790     2.1100 ha         1 D3Q       0.159000
     40 H21          2.3750    -2.6120     2.5220 hn         1 D3Q       0.388800
     41 O02          3.1410     4.5510     2.1500 os         1 D3Q      -0.341900
@<TRIPOS>BOND
     1     1    14 ar
     2     1     2 ar
     3    14    13 ar
     4     2     3 ar
     5    13    12 ar
     6     3    12 ar
     7    12    11 1
     8     9     8 ar
     9     9    10 ar
    10     8     7 ar
    11    11    10 1
    12    11     4 1
    13    10    18 ar
    14     7     6 ar
    15     4    19 1
    16     4    17 1
    17    18     6 ar
    18    19    15 1
    19     6    41 1
    20    41     5 1
    21    17    16 1
    22    15    16 1
    23     1    20 1
    24     2    21 1
    25     3    22 1
    26     4    23 1
    27     5    24 1
    28     5    25 1
    29     5    26 1
    30     7    27 1
    31     8    28 1
    32     9    29 1
    33    11    30 1
    34    13    31 1
    35    14    32 1
    36    15    33 1
    37    15    34 1
    38    16    35 1
    39    16    36 1
    40    17    37 1
    41    17    38 1
    42    18    39 1
    43    19    40 1
@<TRIPOS>SUBSTRUCTURE
     1 D3Q         1 TEMP              0 ****  ****    0 ROOT
