@<TRIPOS>MOLECULE
D3Q
   41    43     1     0     0
SMALL
bcc


@<TRIPOS>ATOM
      1 C12          0.0000     0.0000     0.0000 ca         1 D3Q      -0.105000
      2 C13          1.3830     0.0000     0.0000 ca         1 D3Q      -0.099500
      3 C14          2.0740     0.0000     1.1970 ca         1 D3Q      -0.099500
      4 C15          3.1650    -1.1350     3.6940 c3         1 D3Q       0.120500
      5 C01          2.6140     5.7430     2.6600 c3         1 D3Q       0.250700
      6 C03          3.2950     3.5440     3.1100 ca         1 D3Q       0.117100
      7 C04          4.1450     3.7390     4.1870 ca         1 D3Q      -0.150000
      8 C05          4.3430     2.7210     5.1060 ca         1 D3Q      -0.077000
      9 C06          3.6920     1.5080     4.9480 ca         1 D3Q      -0.158000
     10 C07          2.8420     1.3170     3.8730 ca         1 D3Q      -0.061300
     11 C08          2.1350    -0.0030     3.7000 c3         1 D3Q       0.067900
     12 C09          1.3830    -0.0020     2.3950 ca         1 D3Q      -0.078300
     13 C10          0.0000    -0.0020     2.3950 ca         1 D3Q      -0.099500
     14 C11         -0.6910    -0.0030     1.1970 ca         1 D3Q      -0.099500
     15 C17          3.1850    -3.4480     4.3230 c3         1 D3Q       0.142800
     16 C18          4.3210    -2.7250     5.0770 c3         1 D3Q      -0.091400
     17 C19          3.8540    -1.2460     5.0760 c3         1 D3Q      -0.014400
     18 C20          2.6440     2.3310     2.9520 ca         1 D3Q      -0.128000
     19 N16          2.4940    -2.4390     3.5010 n7         1 D3Q      -0.597200
     20 H1          -0.5420    -0.0000    -0.9380 ha         1 D3Q       0.102000
     21 H2           1.9240     0.0020    -0.9380 ha         1 D3Q       0.102500
     22 H3           3.1570     0.0000     1.1970 ha         1 D3Q       0.110500
     23 H4           3.9040    -0.9760     2.9180 h1         1 D3Q       0.021700
     24 H5           3.4210     6.3740     3.0100 h1         1 D3Q      -0.010967
     25 H6           2.0650     6.2570     1.8800 h1         1 D3Q      -0.010967
     26 H7           1.9470     5.5200     3.4840 h1         1 D3Q      -0.010967
     27 H8           4.6550     4.6870     4.3110 ha         1 D3Q       0.112000
     28 H9           5.0080     2.8730     5.9480 ha         1 D3Q       0.101000
     29 H10          3.8470     0.7120     5.6670 ha         1 D3Q       0.134000
     30 H11          1.4400    -0.1510     4.5170 hc         1 D3Q       0.049700
     31 H12         -0.5420    -0.0030     3.3330 ha         1 D3Q       0.110500
     32 H13         -1.7740    -0.0030     1.1970 ha         1 D3Q       0.102500
     33 H14          3.5150    -3.7300     3.3300 h1         1 D3Q       0.013200
     34 H15          2.8640    -4.3210     4.8790 h1         1 D3Q       0.013200
     35 H16          4.0640    -2.6160     6.1230 hc         1 D3Q       0.036200
     36 H17          5.2490    -3.2730     4.9680 hc         1 D3Q       0.036200
     37 H18          3.1930    -0.8800     5.8530 hc         1 D3Q       0.032700
     38 H19          4.7840    -0.6900     5.0760 hc         1 D3Q       0.032700
     39 H20          1.9790     2.1790     2.1100 ha         1 D3Q       0.139000
     40 H21          2.3750    -2.6120     2.5220 hn         1 D3Q       0.271800
     41 O02          3.1410     4.5510     2.1500 os         1 D3Q      -0.325900
@<TRIPOS>BOND
     1     1     2 ar  
     2     1    14 ar  
     3     1    20 1   
     4     2     3 ar  
     5     2    21 1   
     6     3    12 ar  
     7     3    22 1   
     8     4    11 1   
     9     4    17 1   
    10     4    19 1   
    11     4    23 1   
    12     5    24 1   
    13     5    25 1   
    14     5    26 1   
    15     5    41 1   
    16     6     7 ar  
    17     6    18 ar  
    18     6    41 1   
    19     7     8 ar  
    20     7    27 1   
    21     8     9 ar  
    22     8    28 1   
    23     9    10 ar  
    24     9    29 1   
    25    10    11 1   
    26    10    18 ar  
    27    11    12 1   
    28    11    30 1   
    29    12    13 ar  
    30    13    14 ar  
    31    13    31 1   
    32    14    32 1   
    33    15    16 1   
    34    15    19 1   
    35    15    33 1   
    36    15    34 1   
    37    16    17 1   
    38    16    35 1   
    39    16    36 1   
    40    17    37 1   
    41    17    38 1   
    42    18    39 1   
    43    19    40 1   
@<TRIPOS>SUBSTRUCTURE
     1 D3Q         1 TEMP              0 ****  ****    0 ROOT
