@<TRIPOS>MOLECULE
molecule
   46    49     1     0     0
SMALL
bcc


@<TRIPOS>ATOM
      1 C4           0.0000     0.0000     0.0000 ca         1 D3S      -0.130000
      2 C14          7.9600    -0.8840     2.3050 ca         1 D3S      -0.114300
      3 C5           1.3830     0.0000     0.0000 ca         1 D3S      -0.110000
      4 C6           2.0750     0.0000     1.1950 ca         1 D3S      -0.131000
      5 C7           1.3810    -0.0010     2.3990 ca         1 D3S       0.020900
      6 C9           3.9370    -0.1840     3.4170 ce         1 D3S      -0.178600
      7 C10          4.8170     0.8160     3.6110 c2         1 D3S       0.182900
      8 C12          6.2500     0.6920     3.1690 c3         1 D3S      -0.109200
      9 C13          6.6290    -0.7810     3.0030 c3         1 D3S       0.289400
     10 C3          -0.6960     0.0050     1.1950 ca         1 D3S      -0.106000
     11 C2          -0.0100    -0.0000     2.3950 ca         1 D3S       0.037400
     12 S8           2.2600    -0.0010     3.9260 ss         1 D3S      -0.093500
     13 O11          4.4070     1.9530     4.2140 oh         1 D3S      -0.501100
     14 C15          8.0580    -1.5490     1.0980 ca         1 D3S      -0.064000
     15 C16          9.2780    -1.6390     0.4540 ca         1 D3S      -0.164000
     16 C17         10.4030    -1.0640     1.0150 ca         1 D3S      -0.081000
     17 C18         10.3110    -0.3980     2.2220 ca         1 D3S      -0.218000
     18 C19          9.0880    -0.3060     2.8700 ca         1 D3S       0.147100
     19 O20          8.9940     0.3490     4.0570 oh         1 D3S      -0.502100
     20 C21          6.7160    -1.4340     4.3590 ca         1 D3S      -0.135300
     21 C22          7.0790    -0.6870     5.4640 ca         1 D3S      -0.095500
     22 C23          7.1540    -1.2860     6.7080 ca         1 D3S      -0.131000
     23 C24          6.8650    -2.6310     6.8460 ca         1 D3S      -0.115000
     24 C25          6.5020    -3.3770     5.7410 ca         1 D3S      -0.131000
     25 C26          6.4280    -2.7790     4.4980 ca         1 D3S      -0.095500
     26 O27          5.6220    -1.4360     2.2180 os         1 D3S      -0.422900
     27 C28          4.3830    -1.4270     2.7740 c          1 D3S       0.749800
     28 O29          3.6700    -2.4110     2.7390 o          1 D3S      -0.538500
     29 H1          -0.5400     0.0020    -0.9390 ha         1 D3S       0.135000
     30 H2           1.9240    -0.0010    -0.9390 ha         1 D3S       0.133000
     31 H3           3.1580    -0.0000     1.1940 ha         1 D3S       0.136000
     32 H4           6.3760     1.2020     2.2210 hc         1 D3S       0.089700
     33 H5           6.8940     1.1450     3.9130 hc         1 D3S       0.089700
     34 H6          -1.7800     0.0050     1.1910 ha         1 D3S       0.145000
     35 H7           4.3430     2.6420     3.5740 ho         1 D3S       0.436000
     36 H8           7.1780    -2.0000     0.6570 ha         1 D3S       0.159000
     37 H9           9.3520    -2.1610    -0.4920 ha         1 D3S       0.137000
     38 H10         11.3580    -1.1360     0.5080 ha         1 D3S       0.135000
     39 H11         11.1930     0.0530     2.6610 ha         1 D3S       0.134000
     40 H12          9.7800     0.8490     4.2040 ho         1 D3S       0.422000
     41 H13          7.3050     0.3660     5.3560 ha         1 D3S       0.145500
     42 H14          7.4390    -0.7010     7.5750 ha         1 D3S       0.132500
     43 H15          6.9230    -3.1000     7.8210 ha         1 D3S       0.130000
     44 H16          6.2760    -4.4310     5.8500 ha         1 D3S       0.132500
     45 H17          6.1430    -3.3640     3.6320 ha         1 D3S       0.145500
     46 Cl1         -0.8830     0.0050     3.8960 cl         1 D3S      -0.095400
@<TRIPOS>BOND
     1    10     1 ar
     2    10    11 ar
     3     1     3 ar
     4    46    11 1
     5    13     7 1
     6    11     5 ar
     7     3     4 ar
     8     5     4 ar
     9     5    12 1
    10    22    21 ar
    11    22    23 ar
    12    12     6 1
    13     7     6 2
    14     7     8 1
    15    21    20 ar
    16    23    24 ar
    17     6    27 1
    18     8     9 1
    19    20    25 ar
    20    20     9 1
    21    24    25 ar
    22     9    26 1
    23     9     2 1
    24    27    28 2
    25    27    26 1
    26     2    14 ar
    27     2    18 ar
    28    14    15 ar
    29    19    18 1
    30    18    17 ar
    31    15    16 ar
    32    17    16 ar
    33     1    29 1
    34     3    30 1
    35     4    31 1
    36     8    32 1
    37     8    33 1
    38    10    34 1
    39    13    35 1
    40    14    36 1
    41    15    37 1
    42    16    38 1
    43    17    39 1
    44    19    40 1
    45    21    41 1
    46    22    42 1
    47    23    43 1
    48    24    44 1
    49    25    45 1
@<TRIPOS>SUBSTRUCTURE
     1 D3S         1 TEMP              0 ****  ****    0 ROOT
