@<TRIPOS>MOLECULE
molecule
   74    76     1     0     0
SMALL
bcc


@<TRIPOS>ATOM
      1 C4           0.0000     0.0000     0.0000 c3         1 D3V       0.158800
      2 C5           1.5300     0.0000     0.0000 c3         1 D3V      -0.133100
      3 C6          -0.5110     0.0000     1.4420 c3         1 D3V      -0.107400
      4 C7          -0.0010     1.2490     2.1640 c3         1 D3V      -0.090400
      5 C8          -0.5110     1.2490     3.6060 c3         1 D3V      -0.074400
      6 C9          -0.0020     2.4990     4.3270 c3         1 D3V      -0.078700
      7 C10         -0.6120     2.5630     5.7290 c3         1 D3V      -0.087600
      8 C11          1.5230     2.4380     4.4370 c3         1 D3V      -0.087600
      9 C12         -0.0140    -1.2690    -2.1590 c3         1 D3V      -0.061000
     10 C13          0.0850     0.1660    -2.6790 c3         1 D3V      -0.091100
     11 C14          1.2820    -1.9870    -2.4610 c3         1 D3V      -0.068400
     12 C15          1.6020    -1.7590    -3.9470 c3         1 D3V      -0.078400
     13 C24         -4.0900     1.3900    -7.4410 c3         1 D3V       0.189300
     14 C23         -3.8660     1.4570    -8.9550 c3         1 D3V      -0.105400
     15 C22         -2.3890     1.2160    -9.2710 c3         1 D3V       0.152100
     16 O1          -2.1620     1.4240   -10.6670 oh         1 D3V      -0.611800
     17 C21         -2.0070    -0.2210    -8.9020 c3         1 D3V      -0.040200
     18 C25         -3.6250     0.0340    -6.9480 ce         1 D3V      -0.083200
     19 C26         -4.3660    -0.7000    -6.1180 c2         1 D3V      -0.209000
     20 C20         -2.3090    -0.4330    -7.4330 ce         1 D3V      -0.083200
     21 C19         -1.4200    -1.0230    -6.6070 cf         1 D3V      -0.118000
     22 C17         -0.8700    -1.7930    -4.3750 c2         1 D3V      -0.092400
     23 C           -1.1510    -2.0100    -2.9170 c3         1 D3V      -0.033500
     24 C16          0.4890    -2.2820    -4.8540 c3         1 D3V      -0.043200
     25 C3          -0.5100    -1.2490    -0.7210 c3         1 D3V      -0.043700
     26 C2          -2.0570    -1.2150    -0.8300 c3         1 D3V      -0.075400
     27 C1          -2.3910    -1.3210    -2.3450 c3         1 D3V      -0.075400
     28 O           -0.4770     1.1670    -0.6740 oh         1 D3V      -0.595800
     29 H9           1.8910     0.1130    -1.0150 hc         1 D3V       0.046367
     30 H8           1.8910    -0.9350     0.4100 hc         1 D3V       0.046367
     31 H10          1.8910     0.8230     0.6050 hc         1 D3V       0.046367
     32 H12         -1.5940     0.0010     1.4410 hc         1 D3V       0.052200
     33 H13         -0.1510    -0.8850     1.9530 hc         1 D3V       0.052200
     34 H15          1.0830     1.2480     2.1650 hc         1 D3V       0.042700
     35 H14         -0.3610     2.1340     1.6540 hc         1 D3V       0.042700
     36 H16         -0.1500     0.3650     4.1170 hc         1 D3V       0.042700
     37 H17         -1.5940     1.2490     3.6060 hc         1 D3V       0.042700
     38 H18         -0.2880     3.3810     3.7680 hc         1 D3V       0.048700
     39 H20         -0.2770     3.4650     6.2280 hc         1 D3V       0.033533
     40 H21         -1.6920     2.5730     5.6520 hc         1 D3V       0.033533
     41 H19         -0.2980     1.6970     6.2990 hc         1 D3V       0.033533
     42 H23          1.9670     2.8170     3.5250 hc         1 D3V       0.033533
     43 H22          1.8490     3.0420     5.2750 hc         1 D3V       0.033533
     44 H24          1.8330     1.4110     4.5900 hc         1 D3V       0.033533
     45 H26         -0.7900     0.7240    -2.3670 hc         1 D3V       0.048700
     46 H27          0.1400     0.1560    -3.7600 hc         1 D3V       0.048700
     47 H25          0.9740     0.6360    -2.2760 hc         1 D3V       0.048700
     48 H28          1.1660    -3.0470    -2.2690 hc         1 D3V       0.041700
     49 H29          2.0770    -1.5810    -1.8480 hc         1 D3V       0.041700
     50 H30          2.5240    -2.2730    -4.1910 hc         1 D3V       0.043700
     51 H31          1.7280    -0.6970    -4.1210 hc         1 D3V       0.043700
     52 H3          -5.1440     1.5130    -7.2240 h1         1 D3V       0.036700
     53 H39         -4.1550     2.4360    -9.3170 hc         1 D3V       0.055700
     54 H40         -4.4650     0.6960    -9.4400 hc         1 D3V       0.055700
     55 H2          -1.7830     1.9050    -8.6960 h1         1 D3V       0.053700
     56 H38         -1.5880     2.1630   -10.7850 ho         1 D3V       0.401000
     57 H37         -0.9500    -0.3740    -9.0820 hc         1 D3V       0.057200
     58 H36         -2.5880    -0.9160    -9.4970 hc         1 D3V       0.057200
     59 H42         -5.3270    -0.3310    -5.7800 ha         1 D3V       0.122000
     60 H43         -4.0080    -1.6660    -5.7830 ha         1 D3V       0.122000
     61 H35         -0.4640    -1.3570    -6.9900 ha         1 D3V       0.133000
     62 H           -1.1480    -3.0660    -2.6740 hc         1 D3V       0.061700
     63 H32          0.6580    -1.9280    -5.8640 hc         1 D3V       0.048200
     64 H33          0.5010    -3.3650    -4.8430 hc         1 D3V       0.048200
     65 H1          -0.1910    -2.1460    -0.2040 hc         1 D3V       0.057700
     66 H6          -2.4850    -2.0560    -0.2970 hc         1 D3V       0.047700
     67 H7          -2.4360    -0.2820    -0.4310 hc         1 D3V       0.047700
     68 H5          -3.2730    -1.9310    -2.5000 hc         1 D3V       0.050200
     69 H4          -2.5150    -0.3360    -2.7780 hc         1 D3V       0.050200
     70 H11         -0.0440     1.9290    -0.3280 ho         1 D3V       0.394000
     71 C18         -1.7480    -1.2100    -5.1910 cf         1 D3V      -0.159000
     72 O2          -3.3380     2.4200    -6.7970 oh         1 D3V      -0.597800
     73 H41         -3.9270     3.0770    -6.4640 ho         1 D3V       0.400000
     74 H34         -2.7140    -0.8980    -4.8130 ha         1 D3V       0.147000
@<TRIPOS>BOND
     1     8     6 1
     2     6     7 1
     3     6     5 1
     4     5     4 1
     5     4     3 1
     6     3     1 1
     7    28     1 1
     8    10     9 1
     9    19    18 2
    10    12    11 1
    11    12    24 1
    12    11     9 1
    13     1     2 1
    14     1    25 1
    15     9    25 1
    16     9    23 1
    17    14    15 1
    18    14    13 1
    19    18    20 1
    20    18    13 1
    21    72    13 1
    22    17    20 1
    23    17    15 1
    24    20    21 2
    25    25    26 1
    26    15    16 1
    27    21    71 1
    28    24    22 1
    29    71    22 2
    30    22    23 1
    31    23    27 1
    32    26    27 1
    33     2    29 1
    34     2    30 1
    35     2    31 1
    36     3    32 1
    37     3    33 1
    38     4    34 1
    39     4    35 1
    40     5    36 1
    41     5    37 1
    42     6    38 1
    43     7    39 1
    44     7    40 1
    45     7    41 1
    46     8    42 1
    47     8    43 1
    48     8    44 1
    49    10    45 1
    50    10    46 1
    51    10    47 1
    52    11    48 1
    53    11    49 1
    54    12    50 1
    55    12    51 1
    56    72    73 1
    57    13    52 1
    58    14    53 1
    59    14    54 1
    60    15    55 1
    61    16    56 1
    62    17    57 1
    63    17    58 1
    64    19    59 1
    65    19    60 1
    66    21    61 1
    67    71    74 1
    68    23    62 1
    69    24    63 1
    70    24    64 1
    71    25    65 1
    72    26    66 1
    73    26    67 1
    74    27    68 1
    75    27    69 1
    76    28    70 1
@<TRIPOS>SUBSTRUCTURE
     1 D3V         1 TEMP              0 ****  ****    0 ROOT
