@<TRIPOS>MOLECULE
molecule
   41    43     1     0     0
SMALL
bcc


@<TRIPOS>ATOM
      1 C14          0.0000     0.0000     0.0000 ca         1 D3W      -0.127500
      2 C10         -0.0010    -0.0070     2.3940 ca         1 D3W      -0.058300
      3 C13          1.3820     0.0000     0.0000 ca         1 D3W      -0.134000
      4 C11          1.3820    -0.0010     2.3940 ca         1 D3W      -0.123500
      5 C12          2.0730     0.0000     1.1980 ca         1 D3W      -0.127500
      6 C01         -3.8950     2.7950     4.3190 c3         1 D3W       0.128700
      7 C03         -1.6110     2.1850     4.5670 ca         1 D3W       0.146100
      8 C04         -1.4150     3.3970     5.2120 ca         1 D3W      -0.218000
      9 C05         -0.1610     3.7360     5.6810 ca         1 D3W      -0.092000
     10 C06          0.9010     2.8670     5.5060 ca         1 D3W      -0.165000
     11 C07          0.7090     1.6570     4.8640 ca         1 D3W      -0.093000
     12 C08         -0.5460     1.3120     4.3990 ca         1 D3W      -0.102300
     13 C09         -0.7540    -0.0060     3.7000 c3         1 D3W       0.039900
     14 C15         -0.6910    -0.0010     1.1960 ca         1 D3W      -0.123500
     15 C16         -0.2390    -1.1420     4.5860 c3         1 D3W       0.166500
     16 C18         -0.8220    -3.4380     4.9580 c3         1 D3W       0.149800
     17 C19         -0.8530    -2.6970     6.3130 c3         1 D3W      -0.108400
     18 C20         -1.0600    -1.2170     5.8970 c3         1 D3W      -0.083400
     19 N17         -0.4570    -2.4480     3.9280 n7         1 D3W      -0.804200
     20 O02         -2.8440     1.8500     4.1060 os         1 D3W      -0.328900
     21 H1          -0.5410     0.0020    -0.9380 ha         1 D3W       0.126000
     22 H2           1.9240     0.0010    -0.9380 ha         1 D3W       0.126000
     23 H3           1.9230    -0.0010     3.3320 ha         1 D3W       0.130500
     24 H4           3.1560     0.0020     1.1980 ha         1 D3W       0.126000
     25 H5          -3.6440     3.7300     3.8340 h1         1 D3W       0.041700
     26 H6          -4.8180     2.4090     3.9040 h1         1 D3W       0.041700
     27 H7          -4.0200     2.9620     5.3820 h1         1 D3W       0.041700
     28 H8          -2.2460     4.0790     5.3470 ha         1 D3W       0.134000
     29 H9          -0.0080     4.6830     6.1840 ha         1 D3W       0.129000
     30 H10          1.8840     3.1340     5.8720 ha         1 D3W       0.129000
     31 H11          1.5410     0.9770     4.7300 ha         1 D3W       0.136000
     32 H12         -1.8100    -0.1490     3.5070 hc         1 D3W       0.090700
     33 H13         -1.7750    -0.0030     1.1960 ha         1 D3W       0.130500
     34 H14          0.8120    -1.0060     4.8100 h1         1 D3W       0.030700
     35 H15         -1.8000    -3.8500     4.7420 h1         1 D3W       0.042200
     36 H16         -0.0810    -4.2270     4.9880 h1         1 D3W       0.042200
     37 H17         -1.6820    -3.0430     6.9170 hc         1 D3W       0.046700
     38 H18          0.0890    -2.8180     6.8350 hc         1 D3W       0.046700
     39 H19         -2.1070    -1.0120     5.7080 hc         1 D3W       0.057700
     40 H20         -0.6550    -0.5460     6.6440 hc         1 D3W       0.057700
     41 H21          0.3850    -2.7360     3.4720 hn         1 D3W       0.351800
@<TRIPOS>BOND
     1     5     3 ar
     2     5     4 ar
     3     3     1 ar
     4     4     2 ar
     5     1    14 ar
     6     2    14 ar
     7     2    13 1
     8    11    10 ar
     9    11    12 ar
    10    10     9 ar
    11    13    12 1
    12    13    15 1
    13    12     7 ar
    14     9     8 ar
    15    15    19 1
    16    15    18 1
    17    19    16 1
    18     7     8 ar
    19     7    20 1
    20    20     6 1
    21    18    17 1
    22    16    17 1
    23     1    21 1
    24     3    22 1
    25     4    23 1
    26     5    24 1
    27     6    25 1
    28     6    26 1
    29     6    27 1
    30     8    28 1
    31     9    29 1
    32    10    30 1
    33    11    31 1
    34    13    32 1
    35    14    33 1
    36    15    34 1
    37    16    35 1
    38    16    36 1
    39    17    37 1
    40    17    38 1
    41    18    39 1
    42    18    40 1
    43    19    41 1
@<TRIPOS>SUBSTRUCTURE
     1 D3W         1 TEMP              0 ****  ****    0 ROOT
