@<TRIPOS>MOLECULE
molecule
   57    58     1     0     0
SMALL
bcc


@<TRIPOS>ATOM
      1 C1           0.0000     0.0000     0.0000 c3         1 D3X       0.348900
      2 N1           0.8030    -0.3370    -6.1860 ns         1 D3X      -0.473400
      3 O1          -1.3920    -0.0640    -6.0110 o          1 D3X      -0.569100
      4 S1          -2.6950    -2.4880    -3.8700 sy         1 D3X       1.432200
      5 C2           1.5310     0.0000     0.0000 c3         1 D3X       0.115100
      6 N2          -1.7530    -1.1460    -3.6490 n3         1 D3X      -0.787500
      7 O2          -1.8040    -3.5790    -4.0510 o          1 D3X      -0.643800
      8 C3          -0.3600    -0.4700    -5.5180 c          1 D3X       0.636100
      9 O3          -3.6860    -2.4560    -2.8520 o          1 D3X      -0.643800
     10 C4          -0.6620     2.4100     2.7680 c3         1 D3X       0.151400
     11 O4           2.0080    -1.1680    -0.6700 oh         1 D3X      -0.592800
     12 C5          -0.0760     1.1690     2.0920 c3         1 D3X       0.156100
     13 O5           3.4600     0.0740     1.4580 oh         1 D3X      -0.607800
     14 C6           1.4520     1.2160     2.1770 c3         1 D3X       0.102100
     15 O6           1.8550     1.1860     3.5480 oh         1 D3X      -0.600800
     16 C7           2.0330     0.0000     1.4470 c3         1 D3X       0.107100
     17 O7          -5.5400    -1.8000    -8.9790 os         1 D3X      -0.325900
     18 O8          -0.4750     1.1390     0.7210 os         1 D3X      -0.431600
     19 C9          -2.2910     0.0190    -2.9420 c3         1 D3X       0.244800
     20 O9          -2.0880     2.3110     2.7920 oh         1 D3X      -0.599800
     21 C10         -0.3800    -1.1220    -4.1600 c3         1 D3X       0.167800
     22 O10         -0.4760     0.0560    -1.3460 os         1 D3X      -0.412600
     23 C11         -5.4520    -1.5000    -6.6210 ca         1 D3X      -0.208500
     24 O11          0.8220     0.2760    -7.4620 oh         1 D3X      -0.364100
     25 C12         -3.5460    -2.2820    -5.4000 ca         1 D3X      -0.341500
     26 C13         -2.9770    -2.7400    -6.5730 ca         1 D3X       0.017000
     27 C14         -4.7830    -1.6620    -5.4230 ca         1 D3X       0.017000
     28 C15         -3.6430    -2.5800    -7.7730 ca         1 D3X      -0.208500
     29 C16         -4.8830    -1.9590    -7.8000 ca         1 D3X       0.195100
     30 C17         -4.8940    -2.2970   -10.1530 c3         1 D3X       0.126700
     31 H1          -0.3590    -0.9030     0.4780 h2         1 D3X       0.048700
     32 HN1          1.6530    -0.6730    -5.7790 hn         1 D3X       0.318500
     33 H2           1.8910     0.8870    -0.5070 h1         1 D3X       0.063700
     34 H4          -0.3710     3.2940     2.2130 h1         1 D3X       0.037200
     35 H4A         -0.2870     2.4800     3.7820 h1         1 D3X       0.037200
     36 HO4          2.7860    -0.9550    -1.1590 ho         1 D3X       0.412000
     37 H5          -0.4360     0.2770     2.5910 h1         1 D3X       0.065700
     38 HO5          3.8110    -0.6790     1.9030 ho         1 D3X       0.416000
     39 H6           1.8120     2.1230     1.7080 h1         1 D3X       0.057700
     40 HO6          2.5550     1.8040     3.6830 ho         1 D3X       0.414000
     41 H7           1.7080    -0.9070     1.9420 h1         1 D3X       0.063700
     42 H8          -2.3670     0.7610    -0.9270 h1         1 D3X       0.052700
     43 H8A         -2.2230    -0.9970    -1.0500 h1         1 D3X       0.052700
     44 H9          -3.3710     0.0260    -3.0260 h1         1 D3X       0.071700
     45 H9A         -1.8900     0.9250    -3.3800 h1         1 D3X       0.071700
     46 HO9         -2.4450     3.0400     3.2720 ho         1 D3X       0.405000
     47 H10          0.2490    -0.5600    -3.4810 h1         1 D3X       0.094200
     48 H10A        -0.0070    -2.1360    -4.2410 h1         1 D3X       0.094200
     49 HO11         1.7060     0.2930    -7.7890 ho         1 D3X       0.398000
     50 H13         -2.0090    -3.2250    -6.5520 ha         1 D3X       0.145500
     51 H14         -5.2260    -1.3040    -4.5030 ha         1 D3X       0.145500
     52 H15         -3.1960    -2.9390    -8.6920 ha         1 D3X       0.142500
     53 H17         -3.9420    -1.7970   -10.2810 h1         1 D3X       0.044367
     54 H17A        -5.5200    -2.1080   -11.0170 h1         1 D3X       0.044367
     55 H17B        -4.7310    -3.3630   -10.0530 h1         1 D3X       0.044367
     56 C8          -1.8960    -0.0520    -1.4660 c3         1 D3X       0.112400
     57 H11         -6.4200    -1.0140    -6.6390 ha         1 D3X       0.142500
@<TRIPOS>BOND
     1     1     5 1
     2     1    18 1
     3     1    22 1
     4     2     8 1
     5     2    24 1
     6     3     8 2
     7     4     6 1
     8     4     7 2
     9     4     9 2
    10     4    25 1
    11     5    11 1
    12     5    16 1
    13     6    19 1
    14     6    21 1
    15     8    21 1
    16    10    12 1
    17    10    20 1
    18    12    14 1
    19    12    18 1
    20    13    16 1
    21    14    15 1
    22    14    16 1
    23    17    29 1
    24    17    30 1
    25    56    19 1
    26    56    22 1
    27    23    27 ar
    28    23    29 ar
    29    25    26 ar
    30    25    27 ar
    31    26    28 ar
    32    28    29 ar
    33     1    31 1
    34     2    32 1
    35     5    33 1
    36    10    34 1
    37    10    35 1
    38    11    36 1
    39    12    37 1
    40    13    38 1
    41    14    39 1
    42    15    40 1
    43    16    41 1
    44    56    42 1
    45    56    43 1
    46    19    44 1
    47    19    45 1
    48    20    46 1
    49    21    47 1
    50    21    48 1
    51    23    57 1
    52    24    49 1
    53    26    50 1
    54    27    51 1
    55    28    52 1
    56    30    53 1
    57    30    54 1
    58    30    55 1
@<TRIPOS>SUBSTRUCTURE
     1 D3X         1 TEMP              0 ****  ****    0 ROOT
