@<TRIPOS>MOLECULE
molecule
   55    58     1     0     0
SMALL
bcc


@<TRIPOS>ATOM
      1 CD1          0.0000     0.0000     0.0000 ca         1 D3Y      -0.117000
      2 CE1          1.3820     0.0000     0.0000 ca         1 D3Y      -0.136500
      3 CZ           2.0740     0.0000     1.2020 ca         1 D3Y       0.146100
      4 OH           3.4330     0.0000     1.2050 oh         1 D3Y      -0.502100
      5 CE2          1.3770    -0.0000     2.4010 ca         1 D3Y      -0.136500
      6 CD2         -0.0050     0.0000     2.3960 ca         1 D3Y      -0.117000
      7 CG          -0.6930    -0.0000     1.1970 ca         1 D3Y      -0.172300
      8 CB          -2.1990     0.0070     1.1940 c3         1 D3Y      -0.042100
      9 CA          -2.7160    -1.4330     1.1900 c3         1 D3Y       0.028500
     10 N           -2.3320    -2.0950     2.4440 nz         1 D3Y      -0.792600
     11 C           -4.2180    -1.4280     1.0630 c          1 D3Y       0.637100
     12 O           -4.9100    -1.5810     2.0470 o          1 D3Y      -0.608100
     13 N8          -4.7920    -1.2550    -0.1440 ns         1 D3Y      -0.527900
     14 C3'         -6.2520    -1.2490    -0.2670 c3         1 D3Y       0.057700
     15 C2'         -6.6850    -0.4910    -1.5410 c3         1 D3Y       0.090100
     16 O2'         -5.5420    -0.0000    -2.2450 oh         1 D3Y      -0.599800
     17 C4'         -6.7810    -2.6840    -0.4820 c3         1 D3Y       0.128100
     18 C5'         -7.2790    -3.2720     0.8400 c3         1 D3Y       0.145400
     19 O5'         -7.6570    -4.6370     0.6420 oh         1 D3Y      -0.596800
     20 O4'         -7.8750    -2.5380    -1.4140 os         1 D3Y      -0.379600
     21 C1'         -7.4260    -1.5560    -2.3790 c3         1 D3Y       0.253800
     22 N9          -8.5700    -0.9600    -3.0710 na         1 D3Y      -0.264000
     23 C8          -9.8480    -0.8880    -2.6020 cc         1 D3Y       0.422700
     24 N7         -10.6090    -0.2940    -3.4750 nd         1 D3Y      -0.568100
     25 C5          -9.8690     0.0550    -4.5550 ca         1 D3Y      -0.210200
     26 C4          -8.5520    -0.3630    -4.3070 ca         1 D3Y       0.474800
     27 N3          -7.6170    -0.1320    -5.2230 nb         1 D3Y      -0.810000
     28 C2          -7.9170     0.4830    -6.3470 ca         1 D3Y       0.751900
     29 N1          -9.1400     0.8960    -6.6250 nb         1 D3Y      -0.827000
     30 C6         -10.1420     0.7020    -5.7720 ca         1 D3Y       0.795200
     31 N6         -11.4200     1.1410    -6.0710 nv         1 D3Y      -0.973500
     32 H1          -0.5410    -0.0000    -0.9390 ha         1 D3Y       0.132000
     33 H2           1.9240     0.0000    -0.9380 ha         1 D3Y       0.165000
     34 H3           3.7470    -0.8880     1.2290 ho         1 D3Y       0.435000
     35 H4           1.9150    -0.0000     3.3410 ha         1 D3Y       0.165000
     36 H5          -0.5490     0.0000     3.3330 ha         1 D3Y       0.132000
     37 H6          -2.5600     0.5180     2.0790 hc         1 D3Y       0.095200
     38 H7          -2.5570     0.5220     0.3100 hc         1 D3Y       0.095200
     39 H8          -2.2850    -1.9690     0.3530 hx         1 D3Y       0.124700
     40 H9          -1.3550    -2.3110     2.4210 hn         1 D3Y       0.463800
     41 H10         -2.5210    -1.4840     3.2150 hn         1 D3Y       0.463800
     42 H12         -4.2210    -1.1600    -0.9600 hn         1 D3Y       0.351500
     43 H13         -6.7100    -0.8070     0.6100 h1         1 D3Y       0.105700
     44 H14         -7.3570     0.3200    -1.2860 h1         1 D3Y       0.082700
     45 H15         -5.5700     0.9420    -2.2720 ho         1 D3Y       0.430000
     46 H16         -6.0060    -3.3090    -0.9100 h1         1 D3Y       0.070700
     47 H17         -8.1360    -2.7070     1.1860 h1         1 D3Y       0.040200
     48 H18         -6.4890    -3.2200     1.5790 h1         1 D3Y       0.040200
     49 H19         -8.0220    -4.9810     1.4400 ho         1 D3Y       0.416000
     50 H20         -6.7460    -2.0120    -3.0880 h2         1 D3Y       0.109700
     51 H21        -10.1810    -1.2700    -1.6450 h5         1 D3Y       0.088800
     52 H22         -7.1300     0.6610    -7.0700 h5         1 D3Y       0.065100
     53 H23        -11.6010     1.5980    -6.9430 hn         1 D3Y       0.456300
     54 H24        -12.1640     1.0000    -5.4160 hn         1 D3Y       0.456300
     55 HN3         -2.8620    -2.9360     2.5530 hn         1 D3Y       0.463800
@<TRIPOS>BOND
     1    20    17 1
     2    20    21 1
     3    18    17 1
     4    18    19 1
     5    17    14 1
     6     4     3 1
     7    16    15 1
     8    21    15 1
     9    21    22 1
    10    10     9 1
    11     3     5 ar
    12     3     2 ar
    13     5     6 ar
    14    15    14 1
    15    14    13 1
    16    13    11 1
    17    23    22 1
    18    23    24 2
    19     2     1 ar
    20    22    26 1
    21     6     7 ar
    22     1     7 ar
    23     7     8 1
    24     9    11 1
    25     9     8 1
    26    24    25 1
    27    11    12 2
    28    26    25 ar
    29    26    27 ar
    30    25    30 ar
    31    27    28 ar
    32    30    31 1
    33    30    29 ar
    34    28    29 ar
    35     1    32 1
    36     2    33 1
    37     4    34 1
    38     5    35 1
    39     6    36 1
    40     8    37 1
    41     8    38 1
    42     9    39 1
    43    10    40 1
    44    10    41 1
    45    13    42 1
    46    14    43 1
    47    15    44 1
    48    16    45 1
    49    17    46 1
    50    18    47 1
    51    18    48 1
    52    19    49 1
    53    21    50 1
    54    23    51 1
    55    28    52 1
    56    31    53 1
    57    31    54 1
    58    55    10 1
@<TRIPOS>SUBSTRUCTURE
     1 D3Y         1 TEMP              0 ****  ****    0 ROOT
