@<TRIPOS>MOLECULE
D3Y
   55    58     1     0     0
SMALL
bcc


@<TRIPOS>ATOM
      1 CD1          0.0000     0.0000     0.0000 ca         1 D3Y      -0.077500
      2 CE1          1.3820     0.0000     0.0000 ca         1 D3Y      -0.117500
      3 CZ           2.0740     0.0000     1.2020 ca         1 D3Y       0.171100
      4 OH           3.4330     0.0000     1.2050 oh         1 D3Y      -0.483100
      5 CE2          1.3770    -0.0000     2.4010 ca         1 D3Y      -0.117500
      6 CD2         -0.0050     0.0000     2.3960 ca         1 D3Y      -0.077500
      7 CG          -0.6930    -0.0000     1.1970 ca         1 D3Y      -0.205300
      8 CB          -2.1990     0.0070     1.1940 c3         1 D3Y       0.046900
      9 CA          -2.7160    -1.4330     1.1900 c3         1 D3Y      -0.154500
     10 N           -2.3320    -2.0950     2.4440 nz         1 D3Y       0.089400
     11 C           -4.2180    -1.4280     1.0630 c          1 D3Y       0.545100
     12 O           -4.9100    -1.5810     2.0470 o          1 D3Y      -0.654100
     13 N8          -4.7920    -1.2550    -0.1440 ns         1 D3Y      -0.091900
     14 C3'         -6.2520    -1.2490    -0.2670 c3         1 D3Y      -0.056300
     15 C2'         -6.6850    -0.4910    -1.5410 c3         1 D3Y       0.135100
     16 O2'         -5.5420    -0.0000    -2.2450 oh         1 D3Y      -0.579800
     17 C4'         -6.7810    -2.6840    -0.4820 c3         1 D3Y       0.167100
     18 C5'         -7.2790    -3.2720     0.8400 c3         1 D3Y       0.213400
     19 O5'         -7.6570    -4.6370     0.6420 oh         1 D3Y      -0.579800
     20 O4'         -7.8750    -2.5380    -1.4140 os         1 D3Y      -0.362600
     21 C1'         -7.4260    -1.5560    -2.3790 c3         1 D3Y       0.150800
     22 N9          -8.5700    -0.9600    -3.0710 na         1 D3Y       0.187000
     23 C8          -9.8480    -0.8880    -2.6020 cc         1 D3Y       0.243700
     24 N7         -10.6090    -0.2940    -3.4750 nd         1 D3Y      -0.473100
     25 C5          -9.8690     0.0550    -4.5550 ca         1 D3Y      -0.244200
     26 C4          -8.5520    -0.3630    -4.3070 ca         1 D3Y       0.274800
     27 N3          -7.6170    -0.1320    -5.2230 nb         1 D3Y      -0.705000
     28 C2          -7.9170     0.4830    -6.3470 ca         1 D3Y       0.706900
     29 N1          -9.1400     0.8960    -6.6250 nb         1 D3Y      -0.737000
     30 C6         -10.1420     0.7020    -5.7720 ca         1 D3Y       0.596200
     31 N6         -11.4200     1.1410    -6.0710 nv         1 D3Y      -0.461500
     32 H1          -0.5410    -0.0000    -0.9390 ha         1 D3Y       0.104500
     33 H2           1.9240     0.0000    -0.9380 ha         1 D3Y       0.133500
     34 H3           3.7470    -0.8880     1.2290 ho         1 D3Y       0.417000
     35 H4           1.9150    -0.0000     3.3410 ha         1 D3Y       0.133500
     36 H5          -0.5490     0.0000     3.3330 ha         1 D3Y       0.104500
     37 H6          -2.5600     0.5180     2.0790 hc         1 D3Y       0.055700
     38 H7          -2.5570     0.5220     0.3100 hc         1 D3Y       0.055700
     39 H8          -2.2850    -1.9690     0.3530 hx         1 D3Y       0.096700
     40 H9          -1.3550    -2.3110     2.4210 hn         1 D3Y       0.231467
     41 H10         -2.5210    -1.4840     3.2150 hn         1 D3Y       0.231467
     42 H12         -4.2210    -1.1600    -0.9600 hn         1 D3Y       0.204500
     43 H13         -6.7100    -0.8070     0.6100 h1         1 D3Y       0.081700
     44 H14         -7.3570     0.3200    -1.2860 h1         1 D3Y       0.041700
     45 H15         -5.5700     0.9420    -2.2720 ho         1 D3Y       0.417000
     46 H16         -6.0060    -3.3090    -0.9100 h1         1 D3Y       0.030700
     47 H17         -8.1360    -2.7070     1.1860 h1         1 D3Y       0.004200
     48 H18         -6.4890    -3.2200     1.5790 h1         1 D3Y       0.004200
     49 H19         -8.0220    -4.9810     1.4400 ho         1 D3Y       0.403000
     50 H20         -6.7460    -2.0120    -3.0880 h2         1 D3Y       0.067700
     51 H21        -10.1810    -1.2700    -1.6450 h5         1 D3Y       0.040800
     52 H22         -7.1300     0.6610    -7.0700 h5         1 D3Y      -0.001900
     53 H23        -11.6010     1.5980    -6.9430 hn         1 D3Y       0.280300
     54 H24        -12.1640     1.0000    -5.4160 hn         1 D3Y       0.280300
     55 HN3         -2.8620    -2.9360     2.5530 hn         1 D3Y       0.231467
@<TRIPOS>BOND
     1     1     2 ar  
     2     1     7 ar  
     3     1    32 1   
     4     2     3 ar  
     5     2    33 1   
     6     3     4 1   
     7     3     5 ar  
     8     4    34 1   
     9     5     6 ar  
    10     5    35 1   
    11     6     7 ar  
    12     6    36 1   
    13     7     8 1   
    14     8     9 1   
    15     8    37 1   
    16     8    38 1   
    17     9    10 1   
    18     9    11 1   
    19     9    39 1   
    20    10    40 1   
    21    10    41 1   
    22    10    55 1   
    23    11    12 2   
    24    11    13 1   
    25    13    14 1   
    26    13    42 1   
    27    14    15 1   
    28    14    17 1   
    29    14    43 1   
    30    15    16 1   
    31    15    21 1   
    32    15    44 1   
    33    16    45 1   
    34    17    18 1   
    35    17    20 1   
    36    17    46 1   
    37    18    19 1   
    38    18    47 1   
    39    18    48 1   
    40    19    49 1   
    41    20    21 1   
    42    21    22 1   
    43    21    50 1   
    44    22    23 1   
    45    22    26 1   
    46    23    24 2   
    47    23    51 1   
    48    24    25 1   
    49    25    26 ar  
    50    25    30 ar  
    51    26    27 ar  
    52    27    28 ar  
    53    28    29 ar  
    54    28    52 1   
    55    29    30 ar  
    56    30    31 1   
    57    31    53 1   
    58    31    54 1   
@<TRIPOS>SUBSTRUCTURE
     1 D3Y         1 TEMP              0 ****  ****    0 ROOT
