@<TRIPOS>MOLECULE
molecule
   28    29     1     0     0
SMALL
bcc


@<TRIPOS>ATOM
      1 N1           0.0000     0.0000     0.0000 n          1 D3Z      -0.371000
      2 C2           1.3450     0.0000     0.0000 c          1 D3Z       0.801500
      3 N3           2.0370     0.0000     1.1550 ns         1 D3Z      -0.564500
      4 C4           1.3860     0.0010     2.3360 c          1 D3Z       0.702700
      5 C5          -0.0290     0.0010     2.3500 cc         1 D3Z      -0.325200
      6 C6          -0.6980     0.0010     1.1770 cd         1 D3Z       0.037600
      7 O2           1.9450    -0.0010    -1.0570 o          1 D3Z      -0.605500
      8 O4           2.0120     0.0010     3.3810 o          1 D3Z      -0.622500
      9 C1'         -0.7250     0.0060    -1.2740 c3         1 D3Z       0.321500
     10 C2'         -1.6210    -1.2470    -1.3870 c3         1 D3Z       0.063100
     11 O2'         -2.9690    -0.9340    -1.0330 oh         1 D3Z      -0.605800
     12 C3'         -1.5310    -1.6390    -2.8790 c3         1 D3Z       0.088100
     13 C4'         -0.5910    -0.5760    -3.4900 c3         1 D3Z       0.129100
     14 O3'         -0.9680    -2.9450    -3.0200 oh         1 D3Z      -0.583800
     15 O4'          0.1980    -0.0990    -2.3790 os         1 D3Z      -0.345600
     16 C5'          0.3120    -1.2090    -4.5510 c3         1 D3Z      -0.075100
     17 HN3          3.0380    -0.0000     1.1370 hn         1 D3Z       0.363500
     18 H5          -0.5690     0.0020     3.2900 ha         1 D3Z       0.178000
     19 H6          -1.7810     0.0010     1.1670 h4         1 D3Z       0.170000
     20 H1'         -1.3230     0.9040    -1.3690 h2         1 D3Z       0.080700
     21 H2'         -1.2350    -2.0450    -0.7630 h1         1 D3Z       0.075700
     22 HO2'        -3.4020    -1.7120    -0.7250 ho         1 D3Z       0.413000
     23 H3'         -2.5090    -1.5890    -3.3420 h1         1 D3Z       0.058700
     24 H4'         -1.1690     0.2360    -3.9150 h1         1 D3Z       0.054700
     25 HO3'        -1.6570    -3.5690    -3.1790 ho         1 D3Z       0.403000
     26 H5'         -0.3000    -1.6660    -5.3190 hc         1 D3Z       0.053033
     27 H5'A         0.9390    -0.4460    -4.9940 hc         1 D3Z       0.053033
     28 H5'B         0.9350    -1.9660    -4.0890 hc         1 D3Z       0.053033
@<TRIPOS>BOND
     1     1     2 1
     2     1     6 1
     3     1     9 1
     4     2     3 1
     5     2     7 2
     6     3     4 1
     7     4     5 1
     8     4     8 2
     9     5     6 2
    10     9    10 1
    11     9    15 1
    12    10    11 1
    13    10    12 1
    14    12    13 1
    15    12    14 1
    16    13    15 1
    17    13    16 1
    18     3    17 1
    19     5    18 1
    20     6    19 1
    21     9    20 1
    22    10    21 1
    23    11    22 1
    24    12    23 1
    25    13    24 1
    26    14    25 1
    27    16    26 1
    28    16    27 1
    29    16    28 1
@<TRIPOS>SUBSTRUCTURE
     1 D3Z         1 TEMP              0 ****  ****    0 ROOT
