@<TRIPOS>MOLECULE
D3Z
   28    29     1     0     0
SMALL
bcc


@<TRIPOS>ATOM
      1 N1           0.0000     0.0000     0.0000 n          1 D3Z       0.035000
      2 C2           1.3450     0.0000     0.0000 c          1 D3Z       0.582500
      3 N3           2.0370     0.0000     1.1550 ns         1 D3Z      -0.133500
      4 C4           1.3860     0.0010     2.3360 c          1 D3Z       0.613700
      5 C5          -0.0290     0.0010     2.3500 cc         1 D3Z      -0.298200
      6 C6          -0.6980     0.0010     1.1770 cd         1 D3Z      -0.090400
      7 O2           1.9450    -0.0010    -1.0570 o          1 D3Z      -0.657500
      8 O4           2.0120     0.0010     3.3810 o          1 D3Z      -0.660500
      9 C1'         -0.7250     0.0060    -1.2740 c3         1 D3Z       0.226500
     10 C2'         -1.6210    -1.2470    -1.3870 c3         1 D3Z       0.102100
     11 O2'         -2.9690    -0.9340    -1.0330 oh         1 D3Z      -0.583800
     12 C3'         -1.5310    -1.6390    -2.8790 c3         1 D3Z       0.128100
     13 C4'         -0.5910    -0.5760    -3.4900 c3         1 D3Z       0.160100
     14 O3'         -0.9680    -2.9450    -3.0200 oh         1 D3Z      -0.563800
     15 O4'          0.1980    -0.0990    -2.3790 os         1 D3Z      -0.327600
     16 C5'          0.3120    -1.2090    -4.5510 c3         1 D3Z       0.010900
     17 HN3          3.0380    -0.0000     1.1370 hn         1 D3Z       0.207500
     18 H5          -0.5690     0.0020     3.2900 ha         1 D3Z       0.149000
     19 H6          -1.7810     0.0010     1.1670 h4         1 D3Z       0.139000
     20 H1'         -1.3230     0.9040    -1.3690 h2         1 D3Z       0.040700
     21 H2'         -1.2350    -2.0450    -0.7630 h1         1 D3Z       0.038700
     22 HO2'        -3.4020    -1.7120    -0.7250 ho         1 D3Z       0.399000
     23 H3'         -2.5090    -1.5890    -3.3420 h1         1 D3Z       0.023700
     24 H4'         -1.1690     0.2360    -3.9150 h1         1 D3Z       0.019700
     25 HO3'        -1.6570    -3.5690    -3.1790 ho         1 D3Z       0.388000
     26 H5'         -0.3000    -1.6660    -5.3190 hc         1 D3Z       0.017367
     27 H5'A         0.9390    -0.4460    -4.9940 hc         1 D3Z       0.017367
     28 H5'B         0.9350    -1.9660    -4.0890 hc         1 D3Z       0.017367
@<TRIPOS>BOND
     1     1     2 1   
     2     1     6 1   
     3     1     9 1   
     4     2     3 1   
     5     2     7 2   
     6     3     4 1   
     7     3    17 1   
     8     4     5 1   
     9     4     8 2   
    10     5     6 2   
    11     5    18 1   
    12     6    19 1   
    13     9    10 1   
    14     9    15 1   
    15     9    20 1   
    16    10    11 1   
    17    10    12 1   
    18    10    21 1   
    19    11    22 1   
    20    12    13 1   
    21    12    14 1   
    22    12    23 1   
    23    13    15 1   
    24    13    16 1   
    25    13    24 1   
    26    14    25 1   
    27    16    26 1   
    28    16    27 1   
    29    16    28 1   
@<TRIPOS>SUBSTRUCTURE
     1 D3Z         1 TEMP              0 ****  ****    0 ROOT
