@<TRIPOS>MOLECULE
D41
   42    44     1     0     0
SMALL
bcc


@<TRIPOS>ATOM
      1 O            0.0000     0.0000     0.0000 o          1 D41      -0.418100
      2 C13          1.2160     0.0000     0.0000 c          1 D41       0.359700
      3 N2           1.8900     0.0000     1.1670 nz         1 D41       0.194600
      4 C12          1.9520    -0.0060    -1.2760 ca         1 D41      -0.383900
      5 C11          3.3410     0.1180    -1.2890 ca         1 D41      -0.007000
      6 C14          1.2600    -0.1460    -2.5010 ca         1 D41       0.609200
      7 N3          -0.1140    -0.2760    -2.4890 nv         1 D41      -0.653500
      8 N4           1.8990    -0.1540    -3.6540 nb         1 D41      -0.525000
      9 C15          3.2250    -0.0320    -3.7180 ca         1 D41       0.678300
     10 N5           3.8760    -0.0400    -4.8890 nb         1 D41      -0.600000
     11 C4           5.1810     0.0810    -4.9440 ca         1 D41       0.687300
     12 C1           5.8380     0.0620    -6.3000 c3         1 D41      -0.127300
     13 C3           4.7690    -0.1030    -7.3830 c3         1 D41       0.011900
     14 C2           6.5890     1.3770    -6.5210 c3         1 D41       0.011900
     15 C            6.8240    -1.1060    -6.3740 c3         1 D41       0.011900
     16 C10          3.9860     0.1060    -2.5280 ca         1 D41      -0.354600
     17 C5           5.4380     0.2290    -2.6510 ca         1 D41       0.584800
     18 N            5.9540     0.2170    -3.8820 nb         1 D41      -0.588000
     19 C6           6.2940     0.3770    -1.4660 cc         1 D41      -0.430800
     20 N1           6.0920    -0.2100    -0.2390 na         1 D41       0.377900
     21 C9           7.0970     0.1640     0.5930 cc         1 D41      -0.309300
     22 C8           7.9400     0.9830    -0.0810 cd         1 D41      -0.173000
     23 C7           7.4500     1.1220    -1.3850 cd         1 D41      -0.060000
     24 H21N         2.4750    -0.8110     1.2140 hn         1 D41       0.244467
     25 H22N         2.4560     0.8240     1.2260 hn         1 D41       0.244467
     26 H11          3.8600     0.4860    -0.4120 ha         1 D41       0.094000
     27 H31N        -0.6940     0.5350    -2.5780 hn         1 D41       0.302300
     28 H32N        -0.5290    -1.1840    -2.4180 hn         1 D41       0.302300
     29 H31C         5.2420    -0.1170    -8.3570 hc         1 D41       0.015144
     30 H32C         4.0720     0.7240    -7.3310 hc         1 D41       0.015144
     31 H33C         4.2370    -1.0340    -7.2260 hc         1 D41       0.015144
     32 H21C         5.9380     2.2090    -6.2780 hc         1 D41       0.015144
     33 H22C         7.4640     1.4050    -5.8830 hc         1 D41       0.015144
     34 H23C         6.8950     1.4490    -7.5580 hc         1 D41       0.015144
     35 HC1          7.6750    -0.9000    -5.7350 hc         1 D41       0.015144
     36 HC2          7.1610    -1.2300    -7.3960 hc         1 D41       0.015144
     37 HC3          6.3350    -2.0130    -6.0420 hc         1 D41       0.015144
     38 H1           5.3350    -0.8210    -0.0030 hn         1 D41       0.093700
     39 H7           7.9790     1.8170    -2.0250 ha         1 D41       0.148000
     40 H9           7.2070    -0.1420     1.6270 h4         1 D41       0.149000
     41 H8           8.8700     1.3890     0.2970 ha         1 D41       0.145000
     42 H23          1.2400    -0.0180     1.9280 hn         1 D41       0.244467
@<TRIPOS>BOND
     1     1     2 2   
     2     2     3 1   
     3     2     4 1   
     4     3    24 1   
     5     3    25 1   
     6     3    42 1   
     7     4     5 ar  
     8     4     6 ar  
     9     5    16 ar  
    10     5    26 1   
    11     6     7 1   
    12     6     8 ar  
    13     7    27 1   
    14     7    28 1   
    15     8     9 ar  
    16     9    10 ar  
    17     9    16 ar  
    18    10    11 ar  
    19    11    12 1   
    20    11    18 ar  
    21    12    13 1   
    22    12    14 1   
    23    12    15 1   
    24    13    29 1   
    25    13    30 1   
    26    13    31 1   
    27    14    32 1   
    28    14    33 1   
    29    14    34 1   
    30    15    35 1   
    31    15    36 1   
    32    15    37 1   
    33    16    17 ar  
    34    17    18 ar  
    35    17    19 1   
    36    19    20 1   
    37    19    23 2   
    38    20    21 1   
    39    20    38 1   
    40    21    22 2   
    41    21    40 1   
    42    22    23 1   
    43    22    41 1   
    44    23    39 1   
@<TRIPOS>SUBSTRUCTURE
     1 D41         1 TEMP              0 ****  ****    0 ROOT
