@<TRIPOS>MOLECULE
molecule
   54    58     1     0     0
SMALL
bcc


@<TRIPOS>ATOM
      1 C1           0.0000     0.0000     0.0000 c3         1 D42       0.134300
      2 C2           1.5290     0.0000     0.0000 c3         1 D42       0.115300
      3 N3           2.0220     0.0000     1.3830 n3         1 D42      -0.416600
      4 C4           1.5290    -1.2320     2.0110 c3         1 D42       0.115300
      5 C5          -0.0010    -1.2330     2.0110 c3         1 D42       0.134300
      6 N6          -0.4930    -1.2320     0.6280 n3         1 D42      -0.679600
      7 C15         -1.9560    -1.1130     0.7020 c3         1 D42       0.125100
      8 N19          3.3820    -0.1110     1.3140 ns         1 D42      -0.490300
      9 C20          4.1640     0.8150     1.9030 c          1 D42       0.807100
     10 N21          3.6090     1.7950     2.6430 ns         1 D42      -0.466100
     11 C22          4.4200     2.6790     3.3480 ca         1 D42       0.147600
     12 C23          5.6820     2.2780     3.7770 ca         1 D42      -0.146000
     13 C24          6.4880     3.1520     4.4760 ca         1 D42      -0.087000
     14 C25          6.0540     4.4370     4.7590 ca         1 D42      -0.131000
     15 C26          4.7990     4.8590     4.3400 ca         1 D42      -0.063500
     16 C27          3.9720     3.9770     3.6230 ca         1 D42      -0.213600
     17 C31          4.0900     6.1530     4.5000 cc         1 D42       0.399800
     18 C32          2.7820     6.0230     3.8500 cc         1 D42      -0.400900
     19 C33          2.7040     4.6630     3.3040 c          1 D42       0.647300
     20 N34          4.1640     7.3660     4.9890 nd         1 D42      -0.463800
     21 N35          2.9830     8.0600     4.7060 na         1 D42      -0.041600
     22 C36          2.1360     7.2450     4.0110 cd         1 D42       0.119700
     23 C37          0.7960     7.5920     3.5250 cd         1 D42      -0.100400
     24 S38         -0.0040     7.1770     1.9820 ss         1 D42      -0.167300
     25 C39         -1.5090     7.9880     2.2830 cd         1 D42       0.484700
     26 N40         -1.3200     8.5000     3.4800 nc         1 D42      -0.727000
     27 C41         -0.1980     8.3260     4.1340 cc         1 D42       0.394600
     28 C42          0.0020     8.9190     5.5060 c3         1 D42      -0.127400
     29 C46         -2.7240     8.0810     1.3970 c3         1 D42      -0.100400
     30 O47          5.3710     0.7680     1.7630 o          1 D42      -0.651100
     31 O50          1.7640     4.1880     2.6930 o          1 D42      -0.535100
     32 H11         -0.3590     0.0520    -1.0210 h1         1 D42       0.050950
     33 H12         -0.3590     0.8560     0.5580 h1         1 D42       0.050950
     34 H21A         1.8880    -0.8860    -0.5100 h1         1 D42       0.056450
     35 H22          1.8880     0.8860    -0.5090 h1         1 D42       0.056450
     36 H41          1.8890    -1.2840     3.0320 h1         1 D42       0.056450
     37 H42          1.8890    -2.0890     1.4530 h1         1 D42       0.056450
     38 H51         -0.3600    -0.3470     2.5200 h1         1 D42       0.050950
     39 H52         -0.3600    -2.1190     2.5200 h1         1 D42       0.050950
     40 H151        -2.3640    -1.0550    -0.3000 h1         1 D42       0.038033
     41 H152        -2.3640    -1.9790     1.2080 h1         1 D42       0.038033
     42 H153        -2.2180    -0.2170     1.2510 h1         1 D42       0.038033
     43 H19          3.7970    -0.8730     0.8150 hn         1 D42       0.335500
     44 H21          2.6130     1.8620     2.7170 hn         1 D42       0.359500
     45 H23          6.0330     1.2760     3.5620 ha         1 D42       0.178000
     46 H24          7.4690     2.8310     4.8060 ha         1 D42       0.140000
     47 H25          6.6950     5.1150     5.3090 ha         1 D42       0.142000
     48 H35          2.7910     9.0060     4.9690 hn         1 D42       0.339700
     49 H421         0.4290     8.1720     6.1630 hc         1 D42       0.053033
     50 H422        -0.9530     9.2450     5.9010 hc         1 D42       0.053033
     51 H423         0.6730     9.7670     5.4380 hc         1 D42       0.053033
     52 H461        -2.9320     9.1210     1.1770 hc         1 D42       0.062367
     53 H462        -3.5750     7.6420     1.9040 hc         1 D42       0.062367
     54 H463        -2.5400     7.5460     0.4730 hc         1 D42       0.062367
@<TRIPOS>BOND
     1     1     2 1
     2     1     6 1
     3     1    32 1
     4     1    33 1
     5     2     3 1
     6     2    34 1
     7     2    35 1
     8     3     4 1
     9     3     8 1
    10     4     5 1
    11     4    36 1
    12     4    37 1
    13     5     6 1
    14     5    38 1
    15     5    39 1
    16     6     7 1
    17     7    40 1
    18     7    41 1
    19     7    42 1
    20     8     9 1
    21     8    43 1
    22     9    10 1
    23     9    30 2
    24    10    11 1
    25    10    44 1
    26    11    12 ar
    27    11    16 ar
    28    12    13 ar
    29    12    45 1
    30    13    14 ar
    31    13    46 1
    32    14    15 ar
    33    14    47 1
    34    15    16 ar
    35    15    17 1
    36    16    19 1
    37    17    18 1
    38    17    20 2
    39    18    19 1
    40    18    22 2
    41    19    31 2
    42    20    21 1
    43    21    22 1
    44    21    48 1
    45    22    23 1
    46    23    24 1
    47    23    27 2
    48    24    25 1
    49    25    26 2
    50    25    29 1
    51    26    27 1
    52    27    28 1
    53    28    49 1
    54    28    50 1
    55    28    51 1
    56    29    52 1
    57    29    53 1
    58    29    54 1
@<TRIPOS>SUBSTRUCTURE
     1 D42         1 TEMP              0 ****  ****    0 ROOT
