@<TRIPOS>MOLECULE
molecule
   38    40     1     0     0
SMALL
bcc


@<TRIPOS>ATOM
      1 O1           0.0000     0.0000     0.0000 o          1 D44      -0.583100
      2 C2           1.2130     0.0000     0.0000 c          1 D44       0.671100
      3 N3           1.8870     0.0000     1.1670 ns         1 D44      -0.464100
      4 C4           1.1920     0.1170     2.3760 ca         1 D44       0.054600
      5 C9          -0.0530     0.7310     2.4070 ca         1 D44      -0.133000
      6 C8          -0.7360     0.8450     3.6010 ca         1 D44      -0.113000
      7 C7          -0.1810     0.3500     4.7670 ca         1 D44      -0.142000
      8 C6           1.0590    -0.2620     4.7400 ca         1 D44      -0.108000
      9 C5           1.7450    -0.3840     3.5480 ca         1 D44      -0.114300
     10 C10          3.0940    -1.0560     3.5180 c3         1 D44      -0.041100
     11 C11          4.1920     0.0030     3.6270 c3         1 D44      -0.097100
     12 C12          1.9660    -0.0080    -1.3050 c3         1 D44      -0.095300
     13 S13          0.7900    -0.0060    -2.6800 ss         1 D44      -0.083300
     14 C14          1.9100    -0.0140    -4.0410 cc         1 D44       0.433700
     15 N18          1.5460    -0.0110    -5.3580 na         1 D44      -0.344000
     16 C17          2.7070    -0.0200    -6.1080 ca         1 D44       0.421800
     17 N22          2.9550    -0.0200    -7.4070 nb         1 D44      -0.698000
     18 C21          4.1860    -0.0300    -7.8750 ca         1 D44       0.443200
     19 C20          5.2800    -0.0390    -7.0250 ca         1 D44      -0.271300
     20 C19          5.0800    -0.0380    -5.6570 ca         1 D44      -0.043000
     21 C16          3.7660    -0.0280    -5.1820 ca         1 D44      -0.014900
     22 N15          3.2170    -0.0200    -3.9410 nd         1 D44      -0.625100
     23 H1           2.8870    -0.0380     1.1670 hn         1 D44       0.330500
     24 H2          -0.4880     1.1200     1.4940 ha         1 D44       0.171000
     25 H3          -1.7070     1.3240     3.6250 ha         1 D44       0.135000
     26 H4          -0.7180     0.4430     5.7030 ha         1 D44       0.130000
     27 H5           1.4900    -0.6510     5.6550 ha         1 D44       0.132000
     28 H6           3.1720    -1.7450     4.3500 hc         1 D44       0.049200
     29 H7           3.2060    -1.5990     2.5880 hc         1 D44       0.049200
     30 H8           3.7670     0.9840     3.4570 hc         1 D44       0.038033
     31 H9           4.6320    -0.0340     4.6170 hc         1 D44       0.038033
     32 H10          4.9570    -0.1930     2.8850 hc         1 D44       0.038033
     33 H11          2.5840    -0.8950    -1.3600 h1         1 D44       0.099700
     34 H12          2.5930     0.8740    -1.3650 h1         1 D44       0.099700
     35 H13          0.6160    -0.1220    -5.7120 hn         1 D44       0.320700
     36 H14          4.3460    -0.0310    -8.9460 h4         1 D44       0.028100
     37 H15          6.2850    -0.0480    -7.4300 ha         1 D44       0.143000
     38 H16          5.9190    -0.0450    -4.9720 ha         1 D44       0.147000
@<TRIPOS>BOND
     1    17    18 ar
     2    17    16 ar
     3    15    16 1
     4    15    14 1
     5    18    19 ar
     6    16    21 ar
     7    13    14 1
     8    13    12 1
     9    14    22 2
    10    19    20 ar
    11    21    22 1
    12    21    20 ar
    13    12     2 1
    14    11    10 1
    15     2     3 1
    16     2     1 2
    17    10     9 1
    18     3     4 1
    19     4     9 ar
    20     4     5 ar
    21     9     8 ar
    22     5     6 ar
    23     8     7 ar
    24     6     7 ar
    25     3    23 1
    26     5    24 1
    27     6    25 1
    28     7    26 1
    29     8    27 1
    30    10    28 1
    31    10    29 1
    32    11    30 1
    33    11    31 1
    34    11    32 1
    35    12    33 1
    36    12    34 1
    37    15    35 1
    38    18    36 1
    39    19    37 1
    40    20    38 1
@<TRIPOS>SUBSTRUCTURE
     1 D44         1 TEMP              0 ****  ****    0 ROOT
