@<TRIPOS>MOLECULE
D44
   38    40     1     0     0
SMALL
bcc


@<TRIPOS>ATOM
      1 O1           0.0000     0.0000     0.0000 o          1 D44      -0.613100
      2 C2           1.2130     0.0000     0.0000 c          1 D44       0.571100
      3 N3           1.8870     0.0000     1.1670 ns         1 D44      -0.021100
      4 C4           1.1920     0.1170     2.3760 ca         1 D44      -0.089400
      5 C9          -0.0530     0.7310     2.4070 ca         1 D44      -0.115000
      6 C8          -0.7360     0.8450     3.6010 ca         1 D44      -0.082000
      7 C7          -0.1810     0.3500     4.7670 ca         1 D44      -0.113000
      8 C6           1.0590    -0.2620     4.7400 ca         1 D44      -0.080000
      9 C5           1.7450    -0.3840     3.5480 ca         1 D44      -0.120300
     10 C10          3.0940    -1.0560     3.5180 c3         1 D44       0.026900
     11 C11          4.1920     0.0030     3.6270 c3         1 D44      -0.001100
     12 C12          1.9660    -0.0080    -1.3050 c3         1 D44       0.014700
     13 S13          0.7900    -0.0060    -2.6800 ss         1 D44      -0.217300
     14 C14          1.9100    -0.0140    -4.0410 cc         1 D44       0.251700
     15 N18          1.5460    -0.0110    -5.3580 na         1 D44       0.209000
     16 C17          2.7070    -0.0200    -6.1080 ca         1 D44       0.182800
     17 N22          2.9550    -0.0200    -7.4070 nb         1 D44      -0.557000
     18 C21          4.1860    -0.0300    -7.8750 ca         1 D44       0.409200
     19 C20          5.2800    -0.0390    -7.0250 ca         1 D44      -0.234300
     20 C19          5.0800    -0.0380    -5.6570 ca         1 D44      -0.014000
     21 C16          3.7660    -0.0280    -5.1820 ca         1 D44      -0.036900
     22 N15          3.2170    -0.0200    -3.9410 nd         1 D44      -0.546100
     23 H1           2.8870    -0.0380     1.1670 hn         1 D44       0.175500
     24 H2          -0.4880     1.1200     1.4940 ha         1 D44       0.154000
     25 H3          -1.7070     1.3240     3.6250 ha         1 D44       0.105000
     26 H4          -0.7180     0.4430     5.7030 ha         1 D44       0.103000
     27 H5           1.4900    -0.6510     5.6550 ha         1 D44       0.106000
     28 H6           3.1720    -1.7450     4.3500 hc         1 D44       0.018200
     29 H7           3.2060    -1.5990     2.5880 hc         1 D44       0.018200
     30 H8           3.7670     0.9840     3.4570 hc         1 D44       0.005367
     31 H9           4.6320    -0.0340     4.6170 hc         1 D44       0.005367
     32 H10          4.9570    -0.1930     2.8850 hc         1 D44       0.005367
     33 H11          2.5840    -0.8950    -1.3600 h1         1 D44       0.064700
     34 H12          2.5930     0.8740    -1.3650 h1         1 D44       0.064700
     35 H13          0.6160    -0.1220    -5.7120 hn         1 D44       0.139700
     36 H14          4.3460    -0.0310    -8.9460 h4         1 D44      -0.018900
     37 H15          6.2850    -0.0480    -7.4300 ha         1 D44       0.116000
     38 H16          5.9190    -0.0450    -4.9720 ha         1 D44       0.113000
@<TRIPOS>BOND
     1     1     2 2   
     2     2     3 1   
     3     2    12 1   
     4     3     4 1   
     5     3    23 1   
     6     4     5 ar  
     7     4     9 ar  
     8     5     6 ar  
     9     5    24 1   
    10     6     7 ar  
    11     6    25 1   
    12     7     8 ar  
    13     7    26 1   
    14     8     9 ar  
    15     8    27 1   
    16     9    10 1   
    17    10    11 1   
    18    10    28 1   
    19    10    29 1   
    20    11    30 1   
    21    11    31 1   
    22    11    32 1   
    23    12    13 1   
    24    12    33 1   
    25    12    34 1   
    26    13    14 1   
    27    14    15 1   
    28    14    22 2   
    29    15    16 1   
    30    15    35 1   
    31    16    17 ar  
    32    16    21 ar  
    33    17    18 ar  
    34    18    19 ar  
    35    18    36 1   
    36    19    20 ar  
    37    19    37 1   
    38    20    21 ar  
    39    20    38 1   
    40    21    22 1   
@<TRIPOS>SUBSTRUCTURE
     1 D44         1 TEMP              0 ****  ****    0 ROOT
