@<TRIPOS>MOLECULE
D45
   50    53     1     0     0
SMALL
bcc


@<TRIPOS>ATOM
      1 C1           0.0000     0.0000     0.0000 ca         1 D45      -0.012800
      2 C2           1.3820     0.0000     0.0000 ca         1 D45      -0.158000
      3 C3           2.0660     0.0000     1.2020 ca         1 D45       0.050000
      4 C4           1.3710     0.0010     2.3940 ca         1 D45      -0.173500
      5 C5          -0.0160     0.0280     2.4100 ca         1 D45       0.115600
      6 C6          -0.6970     0.0190     1.1890 ca         1 D45      -0.192500
      7 C12         -1.7370    -1.5080    -5.4520 ca         1 D45       0.115600
      8 C13         -1.0570    -1.4910    -4.2290 ca         1 D45      -0.192500
      9 C14         -1.7530    -1.4770    -3.0410 ca         1 D45      -0.012800
     10 N1          -0.7750     0.1070     3.5690 nh         1 D45      -0.373500
     11 C8          -0.2150    -0.5040     4.7680 c3         1 D45       0.392500
     12 N2           1.0790     0.1370     5.0840 n7         1 D45      -0.572100
     13 S1           2.2620    -0.0650     3.9210 sy         1 D45       1.036700
     14 O1           2.7530    -1.3910     4.0560 o          1 D45      -0.577800
     15 O2           3.0900     1.0900     3.9690 o          1 D45      -0.577800
     16 C9          -0.7500    -0.0140    -1.3080 c3         1 D45       0.025400
     17 C10         -1.0040    -1.4620    -1.7330 c3         1 D45       0.025400
     18 C11         -3.1230    -1.5330    -5.4340 ca         1 D45      -0.173500
     19 C15         -3.1360    -1.4760    -3.0410 ca         1 D45      -0.158000
     20 C16         -3.8190    -1.5040    -4.2430 ca         1 D45       0.050000
     21 N3          -0.9760    -1.4900    -6.6120 nh         1 D45      -0.373500
     22 C17         -1.5440    -2.1360    -7.7870 c3         1 D45       0.392500
     23 N4          -2.8300    -1.4910    -8.1280 n7         1 D45      -0.572100
     24 S2          -4.0160    -1.6400    -6.9590 sy         1 D45       1.036700
     25 O3          -4.8290    -0.4780    -7.0470 o          1 D45      -0.577800
     26 O4          -4.5220    -2.9640    -7.0500 o          1 D45      -0.577800
     27 C18          0.3870    -1.9720    -6.3540 c3         1 D45       0.170100
     28 H1           1.9270    -0.0150    -0.9360 ha         1 D45       0.113000
     29 H2           3.1490     0.0000     1.2080 ha         1 D45       0.110000
     30 H3          -1.7800     0.0190     1.1770 ha         1 D45       0.129000
     31 H4          -2.6990     0.4010     2.7930 h1         1 D45       0.014700
     32 H5          -2.1240    -1.2710     2.7480 h1         1 D45       0.014700
     33 H6          -2.6320    -0.5520     4.2820 h1         1 D45       0.014700
     34 H8          -0.0610    -1.5620     4.5940 h2         1 D45       0.021200
     35 H9          -0.8990    -0.3640     5.5960 h2         1 D45       0.021200
     36 H10          1.2350     0.6490     5.9300 hn         1 D45       0.359800
     37 H11         -1.6970     0.4980    -1.1870 hc         1 D45       0.024950
     38 H12         -0.1630     0.4880    -2.0670 hc         1 D45       0.024950
     39 H13         -0.0570    -1.9740    -1.8540 hc         1 D45       0.024950
     40 H14         -1.5920    -1.9640    -0.9740 hc         1 D45       0.024950
     41 H15         -3.6810    -1.4660    -2.1050 ha         1 D45       0.113000
     42 H16         -4.9030    -1.5030    -4.2500 ha         1 D45       0.110000
     43 H17         -0.8590    -2.0350    -8.6200 h2         1 D45       0.021200
     44 H18         -1.7120    -3.1850    -7.5760 h2         1 D45       0.021200
     45 H19         -2.9790    -1.0050    -8.9900 hn         1 D45       0.359800
     46 H20          0.9600    -1.1910    -5.8680 h1         1 D45       0.014700
     47 H21          0.8600    -2.2360    -7.2920 h1         1 D45       0.014700
     48 H22          0.3470    -2.8430    -5.7110 h1         1 D45       0.014700
     49 C7          -2.1470    -0.3590     3.3320 c3         1 D45       0.170100
     50 H7           0.0270    -1.4940    -4.2170 ha         1 D45       0.129000
@<TRIPOS>BOND
     1     1     2 ar  
     2     1     6 ar  
     3     1    16 1   
     4     2     3 ar  
     5     2    28 1   
     6     3     4 ar  
     7     3    29 1   
     8     4     5 ar  
     9     4    13 1   
    10     5     6 ar  
    11     5    10 1   
    12     6    30 1   
    13     7     8 ar  
    14     7    18 ar  
    15     7    21 1   
    16     8     9 ar  
    17     8    50 1   
    18     9    17 1   
    19     9    19 ar  
    20    10    11 1   
    21    10    49 1   
    22    11    12 1   
    23    11    34 1   
    24    11    35 1   
    25    12    13 1   
    26    12    36 1   
    27    13    14 2   
    28    13    15 2   
    29    16    17 1   
    30    16    37 1   
    31    16    38 1   
    32    17    39 1   
    33    17    40 1   
    34    18    20 ar  
    35    18    24 1   
    36    19    20 ar  
    37    19    41 1   
    38    20    42 1   
    39    21    22 1   
    40    21    27 1   
    41    22    23 1   
    42    22    43 1   
    43    22    44 1   
    44    23    24 1   
    45    23    45 1   
    46    24    25 2   
    47    24    26 2   
    48    27    46 1   
    49    27    47 1   
    50    27    48 1   
    51    31    49 1   
    52    32    49 1   
    53    33    49 1   
@<TRIPOS>SUBSTRUCTURE
     1 D45         1 TEMP              0 ****  ****    0 ROOT
