@<TRIPOS>MOLECULE
molecule
   50    53     1     0     0
SMALL
bcc


@<TRIPOS>ATOM
      1 C1           0.0000     0.0000     0.0000 ca         1 D45      -0.007800
      2 C2           1.3820     0.0000     0.0000 ca         1 D45      -0.174000
      3 C3           2.0660     0.0000     1.2020 ca         1 D45       0.006000
      4 C4           1.3710     0.0010     2.3940 ca         1 D45      -0.329500
      5 C5          -0.0160     0.0280     2.4100 ca         1 D45       0.209600
      6 C6          -0.6970     0.0190     1.1890 ca         1 D45      -0.198500
      7 C12         -1.7370    -1.5080    -5.4520 ca         1 D45       0.209600
      8 C13         -1.0570    -1.4910    -4.2290 ca         1 D45      -0.198500
      9 C14         -1.7530    -1.4770    -3.0410 ca         1 D45      -0.007800
     10 N1          -0.7750     0.1070     3.5690 nh         1 D45      -0.638000
     11 C8          -0.2150    -0.5040     4.7680 c3         1 D45       0.483000
     12 N2           1.0790     0.1370     5.0840 n7         1 D45      -0.905100
     13 S1           2.2620    -0.0650     3.9210 sy         1 D45       1.414200
     14 O1           2.7530    -1.3910     4.0560 o          1 D45      -0.627800
     15 O2           3.0900     1.0900     3.9690 o          1 D45      -0.627800
     16 C9          -0.7500    -0.0140    -1.3080 c3         1 D45      -0.039100
     17 C10         -1.0040    -1.4620    -1.7330 c3         1 D45      -0.039100
     18 C11         -3.1230    -1.5330    -5.4340 ca         1 D45      -0.329500
     19 C15         -3.1360    -1.4760    -3.0410 ca         1 D45      -0.174000
     20 C16         -3.8190    -1.5040    -4.2430 ca         1 D45       0.006000
     21 N3          -0.9760    -1.4900    -6.6120 nh         1 D45      -0.638000
     22 C17         -1.5440    -2.1360    -7.7870 c3         1 D45       0.483000
     23 N4          -2.8300    -1.4910    -8.1280 n7         1 D45      -0.905100
     24 S2          -4.0160    -1.6400    -6.9590 sy         1 D45       1.414200
     25 O3          -4.8290    -0.4780    -7.0470 o          1 D45      -0.627800
     26 O4          -4.5220    -2.9640    -7.0500 o          1 D45      -0.627800
     27 C18          0.3870    -1.9720    -6.3540 c3         1 D45       0.165100
     28 H1           1.9270    -0.0150    -0.9360 ha         1 D45       0.136500
     29 H2           3.1490     0.0000     1.2080 ha         1 D45       0.142000
     30 H3          -1.7800     0.0190     1.1770 ha         1 D45       0.140000
     31 H4          -2.6990     0.4010     2.7930 h1         1 D45       0.047533
     32 H5          -2.1240    -1.2710     2.7480 h1         1 D45       0.047533
     33 H6          -2.6320    -0.5520     4.2820 h1         1 D45       0.047533
     34 H8          -0.0610    -1.5620     4.5940 h2         1 D45       0.060950
     35 H9          -0.8990    -0.3640     5.5960 h2         1 D45       0.060950
     36 H10          1.2350     0.6490     5.9300 hn         1 D45       0.469800
     37 H11         -1.6970     0.4980    -1.1870 hc         1 D45       0.058450
     38 H12         -0.1630     0.4880    -2.0670 hc         1 D45       0.058450
     39 H13         -0.0570    -1.9740    -1.8540 hc         1 D45       0.058450
     40 H14         -1.5920    -1.9640    -0.9740 hc         1 D45       0.058450
     41 H15         -3.6810    -1.4660    -2.1050 ha         1 D45       0.136500
     42 H16         -4.9030    -1.5030    -4.2500 ha         1 D45       0.142000
     43 H17         -0.8590    -2.0350    -8.6200 h2         1 D45       0.060950
     44 H18         -1.7120    -3.1850    -7.5760 h2         1 D45       0.060950
     45 H19         -2.9790    -1.0050    -8.9900 hn         1 D45       0.469800
     46 H20          0.9600    -1.1910    -5.8680 h1         1 D45       0.047533
     47 H21          0.8600    -2.2360    -7.2920 h1         1 D45       0.047533
     48 H22          0.3470    -2.8430    -5.7110 h1         1 D45       0.047533
     49 C7          -2.1470    -0.3590     3.3320 c3         1 D45       0.165100
     50 H7           0.0270    -1.4940    -4.2170 ha         1 D45       0.140000
@<TRIPOS>BOND
     1    15    13 2
     2    25    24 2
     3    13    12 1
     4    13    14 2
     5    13     4 1
     6    24    23 1
     7    24    26 2
     8    24    18 1
     9    12    11 1
    10    23    22 1
    11    11    10 1
    12     4     3 ar
    13     4     5 ar
    14     3     2 ar
    15    20    18 ar
    16    20    19 ar
    17    18     7 ar
    18    22    21 1
    19    10     5 1
    20    10    49 1
    21     5     6 ar
    22     2     1 ar
    23    19     9 ar
    24     7    21 1
    25     7     8 ar
    26    21    27 1
    27     6     1 ar
    28     1    16 1
    29     9     8 ar
    30     9    17 1
    31    17    16 1
    32     2    28 1
    33     3    29 1
    34     6    30 1
    35    49    31 1
    36    49    32 1
    37    49    33 1
    38     8    50 1
    39    11    34 1
    40    11    35 1
    41    12    36 1
    42    16    37 1
    43    16    38 1
    44    17    39 1
    45    17    40 1
    46    19    41 1
    47    20    42 1
    48    22    43 1
    49    22    44 1
    50    23    45 1
    51    27    46 1
    52    27    47 1
    53    27    48 1
@<TRIPOS>SUBSTRUCTURE
     1 D45         1 TEMP              0 ****  ****    0 ROOT
