@<TRIPOS>MOLECULE
D46
   48    51     1     0     0
SMALL
bcc


@<TRIPOS>ATOM
      1 C1           0.0000     0.0000     0.0000 ca         1 D46      -0.114000
      2 Cl1          6.1760    -7.0920     2.4470 cl         1 D46       0.065600
      3 C2           1.3820     0.0000     0.0000 ca         1 D46      -0.066000
      4 C3           2.0750     0.0000     1.1950 ca         1 D46      -0.156300
      5 C4           1.3800     0.0010     2.3980 ca         1 D46      -0.073400
      6 C5          -0.0090     0.0000     2.3940 ca         1 D46      -0.107000
      7 C6          -0.6940     0.0010     1.1960 ca         1 D46      -0.071000
      8 C7           3.5810    -0.0010     1.1940 c3         1 D46       0.112300
      9 N8           4.0700    -1.3610     1.4340 ns         1 D46      -0.204900
     10 C9           5.3950    -1.6040     1.4760 c          1 D46       0.630700
     11 C10          5.8830    -2.9640     1.7160 cc         1 D46      -0.080700
     12 O11          6.1860    -0.6930     1.3150 o          1 D46      -0.638100
     13 N12          2.0780     0.0000     3.6100 ns         1 D46      -0.038100
     14 C13          1.5830     0.6650     4.6730 c          1 D46       0.507600
     15 C14          2.3640     0.7480     5.9180 cc         1 D46       0.361900
     16 O15          0.4910     1.1960     4.6030 o          1 D46      -0.596100
     17 S16          4.8720    -4.3800     1.9670 ss         1 D46      -0.211800
     18 C17          6.2410    -5.3840     2.1450 cc         1 D46       0.034300
     19 C18          7.3720    -4.6770     2.0190 cd         1 D46      -0.143000
     20 C19          7.1970    -3.3350     1.7760 cd         1 D46      -0.032000
     21 N20          1.9900     1.3590     7.0050 nd         1 D46      -0.449000
     22 C21          2.8250     1.3250     8.0190 cd         1 D46       0.308600
     23 C22          3.9730     0.6440     7.7740 cc         1 D46      -0.098700
     24 S23          3.9490     0.0300     6.1810 ss         1 D46      -0.292300
     25 C24          5.0890     0.4670     8.7810 c3         1 D46       0.261100
     26 N25          4.9000     1.4440     9.8640 n3         1 D46      -0.546600
     27 C26          3.5290     1.3830    10.3910 c3         1 D46       0.146800
     28 C27          2.5590     1.9810     9.3670 c3         1 D46      -0.035700
     29 C28          5.8850     1.2410    10.9350 c3         1 D46       0.190100
     30 H1          -0.5410     0.0000    -0.9390 ha         1 D46       0.106000
     31 H2           1.9230    -0.0010    -0.9390 ha         1 D46       0.109000
     32 H5          -0.5540     0.0010     3.3300 ha         1 D46       0.149000
     33 H6          -1.7780     0.0000     1.1930 ha         1 D46       0.107000
     34 H7           3.9420     0.3480     0.2340 h1         1 D46       0.033200
     35 H7A          3.9430     0.6560     1.9760 h1         1 D46       0.033200
     36 HN8          3.4200    -2.1140     1.5400 hn         1 D46       0.184500
     37 HN12         2.9210    -0.5310     3.7010 hn         1 D46       0.178500
     38 H18          8.3530    -5.1300     2.0960 ha         1 D46       0.133000
     39 H19          8.0190    -2.6400     1.6520 ha         1 D46       0.143000
     40 H24          5.0560    -0.5360     9.1870 h1         1 D46       0.022700
     41 H24A         6.0440     0.6400     8.2980 h1         1 D46       0.022700
     42 H26          3.2690     0.3410    10.5330 h1         1 D46       0.018700
     43 H26A         3.4860     1.9860    11.2890 h1         1 D46       0.018700
     44 H27          1.5390     1.7830     9.6740 hc         1 D46       0.034700
     45 H27A         2.7230     3.0490     9.2910 hc         1 D46       0.034700
     46 H28          5.8080     2.0480    11.6530 h1         1 D46       0.002700
     47 H28A         5.6900     0.2970    11.4300 h1         1 D46       0.002700
     48 H28B         6.8820     1.2280    10.5110 h1         1 D46       0.002700
@<TRIPOS>BOND
     1     1     3 ar  
     2     1     7 ar  
     3     1    30 1   
     4     2    18 1   
     5     3     4 ar  
     6     3    31 1   
     7     4     5 ar  
     8     4     8 1   
     9     5     6 ar  
    10     5    13 1   
    11     6     7 ar  
    12     6    32 1   
    13     7    33 1   
    14     8     9 1   
    15     8    34 1   
    16     8    35 1   
    17     9    10 1   
    18     9    36 1   
    19    10    11 1   
    20    10    12 2   
    21    11    17 1   
    22    11    20 2   
    23    13    14 1   
    24    13    37 1   
    25    14    15 1   
    26    14    16 2   
    27    15    21 2   
    28    15    24 1   
    29    17    18 1   
    30    18    19 2   
    31    19    20 1   
    32    19    38 1   
    33    20    39 1   
    34    21    22 1   
    35    22    23 2   
    36    22    28 1   
    37    23    24 1   
    38    23    25 1   
    39    25    26 1   
    40    25    40 1   
    41    25    41 1   
    42    26    27 1   
    43    26    29 1   
    44    27    28 1   
    45    27    42 1   
    46    27    43 1   
    47    28    44 1   
    48    28    45 1   
    49    29    46 1   
    50    29    47 1   
    51    29    48 1   
@<TRIPOS>SUBSTRUCTURE
     1 D46         1 TEMP              0 ****  ****    0 ROOT
