@<TRIPOS>MOLECULE
molecule
   48    51     1     0     0
SMALL
bcc


@<TRIPOS>ATOM
      1 C1           0.0000     0.0000     0.0000 ca         1 D46      -0.145000
      2 Cl1          6.1760    -7.0920     2.4470 cl         1 D46      -0.045400
      3 C2           1.3820     0.0000     0.0000 ca         1 D46      -0.096000
      4 C3           2.0750     0.0000     1.1950 ca         1 D46      -0.151300
      5 C4           1.3800     0.0010     2.3980 ca         1 D46       0.070600
      6 C5          -0.0090     0.0000     2.3940 ca         1 D46      -0.130000
      7 C6          -0.6940     0.0010     1.1960 ca         1 D46      -0.102000
      8 C7           3.5810    -0.0010     1.1940 c3         1 D46       0.161300
      9 N8           4.0700    -1.3610     1.4340 ns         1 D46      -0.589900
     10 C9           5.3950    -1.6040     1.4760 c          1 D46       0.701700
     11 C10          5.8830    -2.9640     1.7160 cc         1 D46      -0.125700
     12 O11          6.1860    -0.6930     1.3150 o          1 D46      -0.593100
     13 N12          2.0780     0.0000     3.6100 ns         1 D46      -0.477100
     14 C13          1.5830     0.6650     4.6730 c          1 D46       0.598600
     15 C14          2.3640     0.7480     5.9180 cc         1 D46       0.394900
     16 O15          0.4910     1.1960     4.6030 o          1 D46      -0.548100
     17 S16          4.8720    -4.3800     1.9670 ss         1 D46      -0.061800
     18 C17          6.2410    -5.3840     2.1450 cc         1 D46       0.056300
     19 C18          7.3720    -4.6770     2.0190 cd         1 D46      -0.167000
     20 C19          7.1970    -3.3350     1.7760 cd         1 D46      -0.070000
     21 N20          1.9900     1.3590     7.0050 nd         1 D46      -0.598000
     22 C21          2.8250     1.3250     8.0190 cd         1 D46       0.367600
     23 C22          3.9730     0.6440     7.7740 cc         1 D46      -0.141700
     24 S23          3.9490     0.0300     6.1810 ss         1 D46      -0.185300
     25 C24          5.0890     0.4670     8.7810 c3         1 D46       0.245100
     26 N25          4.9000     1.4440     9.8640 n3         1 D46      -0.727600
     27 C26          3.5290     1.3830    10.3910 c3         1 D46       0.156800
     28 C27          2.5590     1.9810     9.3670 c3         1 D46      -0.094700
     29 C28          5.8850     1.2410    10.9350 c3         1 D46       0.153100
     30 H1          -0.5410     0.0000    -0.9390 ha         1 D46       0.134000
     31 H2           1.9230    -0.0010    -0.9390 ha         1 D46       0.137000
     32 H5          -0.5540     0.0010     3.3300 ha         1 D46       0.171000
     33 H6          -1.7780     0.0000     1.1930 ha         1 D46       0.138000
     34 H7           3.9420     0.3480     0.2340 h1         1 D46       0.064700
     35 H7A          3.9430     0.6560     1.9760 h1         1 D46       0.064700
     36 HN8          3.4200    -2.1140     1.5400 hn         1 D46       0.316500
     37 HN12         2.9210    -0.5310     3.7010 hn         1 D46       0.329500
     38 H18          8.3530    -5.1300     2.0960 ha         1 D46       0.165000
     39 H19          8.0190    -2.6400     1.6520 ha         1 D46       0.178000
     40 H24          5.0560    -0.5360     9.1870 h1         1 D46       0.052200
     41 H24A         6.0440     0.6400     8.2980 h1         1 D46       0.052200
     42 H26          3.2690     0.3410    10.5330 h1         1 D46       0.045700
     43 H26A         3.4860     1.9860    11.2890 h1         1 D46       0.045700
     44 H27          1.5390     1.7830     9.6740 hc         1 D46       0.071700
     45 H27A         2.7230     3.0490     9.2910 hc         1 D46       0.071700
     46 H28          5.8080     2.0480    11.6530 h1         1 D46       0.036033
     47 H28A         5.6900     0.2970    11.4300 h1         1 D46       0.036033
     48 H28B         6.8820     1.2280    10.5110 h1         1 D46       0.036033
@<TRIPOS>BOND
     1     1     3 ar
     2     1     7 ar
     3     2    18 1
     4     3     4 ar
     5     4     5 ar
     6     4     8 1
     7     5     6 ar
     8     5    13 1
     9     6     7 ar
    10     8     9 1
    11     9    10 1
    12    10    11 1
    13    10    12 2
    14    11    17 1
    15    11    20 2
    16    13    14 1
    17    14    15 1
    18    14    16 2
    19    15    21 2
    20    15    24 1
    21    17    18 1
    22    18    19 2
    23    19    20 1
    24    21    22 1
    25    22    23 2
    26    22    28 1
    27    23    24 1
    28    23    25 1
    29    25    26 1
    30    26    27 1
    31    26    29 1
    32    27    28 1
    33     1    30 1
    34     3    31 1
    35     6    32 1
    36     7    33 1
    37     8    34 1
    38     8    35 1
    39     9    36 1
    40    13    37 1
    41    19    38 1
    42    20    39 1
    43    25    40 1
    44    25    41 1
    45    27    42 1
    46    27    43 1
    47    28    44 1
    48    28    45 1
    49    29    46 1
    50    29    47 1
    51    29    48 1
@<TRIPOS>SUBSTRUCTURE
     1 D46         1 TEMP              0 ****  ****    0 ROOT
