@<TRIPOS>MOLECULE
molecule
   54    58     1     0     0
SMALL
bcc


@<TRIPOS>ATOM
      1 C4           0.0000     0.0000     0.0000 ca         1 D47       0.040400
      2 C14          4.9150     0.0610    -2.1640 c          1 D47       0.728500
      3 C5           1.3910     0.0000     0.0000 ca         1 D47       0.016900
      4 C6           2.0820     0.0000     1.2060 ca         1 D47      -0.128000
      5 C11          4.4180    -2.6780    -1.5530 c3         1 D47      -0.166400
      6 C8           3.9980    -0.1920    -0.9970 c3         1 D47      -0.193600
      7 C9           4.2290    -1.6030    -0.5000 c          1 D47       0.570100
      8 C12          5.6390    -2.2990    -2.3970 c3         1 D47       0.152400
      9 C3          -0.6890    -0.0000     1.1980 ca         1 D47      -0.110000
     10 C1           1.3870    -0.0000     2.3990 ca         1 D47      -0.105000
     11 C2           0.0040    -0.0010     2.3950 ca         1 D47      -0.124000
     12 S7           2.2740    -0.0010    -1.5250 ss         1 D47      -0.141000
     13 N13          5.5860    -0.9000    -2.7930 ns         1 D47      -0.558900
     14 O15          5.0450     1.2020    -2.5530 o          1 D47      -0.622500
     15 C16          5.6730    -3.1620    -3.6320 cc         1 D47      -0.128300
     16 C17          6.2180    -2.7290    -4.8280 cd         1 D47      -0.156000
     17 C18          6.1690    -3.6170    -5.8230 cc         1 D47      -0.063100
     18 S19          5.3980    -5.0930    -5.2570 ss         1 D47      -0.133800
     19 C20          5.1850    -4.4030    -3.6540 cd         1 D47      -0.056100
     20 C21          6.8900    -2.5390    -1.5940 ca         1 D47       0.441600
     21 C22          8.1140    -2.1650    -2.1100 ca         1 D47      -0.277300
     22 C23          9.2640    -2.3880    -1.3640 ca         1 D47      -0.050000
     23 C24          9.1400    -2.9830    -0.1210 ca         1 D47      -0.304300
     24 C25          7.8750    -3.3340     0.3370 ca         1 D47       0.700200
     25 N26          6.8010    -3.0990    -0.4020 nb         1 D47      -0.744000
     26 N27          7.7350    -3.9320     1.5850 nu         1 D47      -0.773300
     27 C28          6.4830    -4.3970     2.0010 ca         1 D47       0.152600
     28 C29          5.5890    -4.9140     1.0720 ca         1 D47      -0.123000
     29 C30          4.3540    -5.3740     1.4850 ca         1 D47      -0.146500
     30 C31          4.0070    -5.3200     2.8250 ca         1 D47       0.113900
     31 C32          4.8970    -4.8060     3.7530 ca         1 D47      -0.146500
     32 C33          6.1350    -4.3490     3.3450 ca         1 D47      -0.123000
     33 F34          2.7980    -5.7690     3.2280 f          1 D47      -0.144900
     34 Cl35        -0.8690     0.0060    -1.5020 cl         1 D47      -0.094400
     35 H1           3.1660     0.0000     1.2100 ha         1 D47       0.154000
     36 H2           3.5390    -2.7300    -2.1840 hc         1 D47       0.093700
     37 H3           4.5890    -3.6340    -1.0730 hc         1 D47       0.093700
     38 H4           4.2210     0.5110    -0.2040 h1         1 D47       0.124700
     39 H5          -1.7730    -0.0000     1.1990 ha         1 D47       0.146000
     40 H6           1.9250    -0.0010     3.3390 ha         1 D47       0.139000
     41 H7          -0.5390    -0.0010     3.3330 ha         1 D47       0.137000
     42 H8           6.0990    -0.6370    -3.6110 hn         1 D47       0.335500
     43 H9           6.6530    -1.7440    -4.9480 ha         1 D47       0.146000
     44 H10          6.5440    -3.4530    -6.8250 h4         1 D47       0.176000
     45 H11          4.7230    -4.9080    -2.8140 h4         1 D47       0.178000
     46 H12          8.1770    -1.7010    -3.0870 ha         1 D47       0.139000
     47 H13         10.2370    -2.1040    -1.7470 ha         1 D47       0.142000
     48 H14         10.0160    -3.1740     0.4860 ha         1 D47       0.139000
     49 H15          8.5340    -4.0480     2.1760 hn         1 D47       0.456800
     50 H16          5.8600    -4.9560     0.0240 ha         1 D47       0.144000
     51 H17          3.6570    -5.7760     0.7610 ha         1 D47       0.142500
     52 H18          4.6250    -4.7670     4.8010 ha         1 D47       0.142500
     53 H19          6.8310    -3.9480     4.0710 ha         1 D47       0.144000
     54 O10          4.2590    -1.8620     0.6800 o          1 D47      -0.481100
@<TRIPOS>BOND
     1     9    11 ar
     2     9     1 ar
     3    11    10 ar
     4    34     1 1
     5    54     7 2
     6     1     3 ar
     7    10     4 ar
     8     3     4 ar
     9     3    12 1
    10    12     6 1
    11     7     6 1
    12     7     5 1
    13    17    16 2
    14    17    18 1
    15    16    15 1
    16    33    30 1
    17     6     2 1
    18     5     8 1
    19    18    19 1
    20    30    29 ar
    21    30    31 ar
    22    15     8 1
    23    15    19 2
    24    29    28 ar
    25     8    13 1
    26     8    20 1
    27    31    32 ar
    28     2    13 1
    29     2    14 2
    30    28    27 ar
    31    20    25 ar
    32    20    21 ar
    33    32    27 ar
    34    25    24 ar
    35    27    26 1
    36    21    22 ar
    37    24    26 1
    38    24    23 ar
    39    22    23 ar
    40     4    35 1
    41     5    36 1
    42     5    37 1
    43     6    38 1
    44     9    39 1
    45    10    40 1
    46    11    41 1
    47    13    42 1
    48    16    43 1
    49    17    44 1
    50    19    45 1
    51    21    46 1
    52    22    47 1
    53    23    48 1
    54    26    49 1
    55    28    50 1
    56    29    51 1
    57    31    52 1
    58    32    53 1
@<TRIPOS>SUBSTRUCTURE
     1 D47         1 TEMP              0 ****  ****    0 ROOT
