@<TRIPOS>MOLECULE
molecule
   20    21     1     0     0
SMALL
bcc


@<TRIPOS>ATOM
      1 O1           0.0000     0.0000     0.0000 oh         1 D48      -0.511600
      2 C1           1.3590     0.0000     0.0000 ca         1 D48       0.098100
      3 C2           2.0330     0.0000     1.1870 ca         1 D48      -0.147000
      4 C3           3.4380    -0.0010     1.1890 ca         1 D48      -0.032000
      5 C4           4.1640    -0.0010     2.3920 ca         1 D48      -0.115000
      6 C5           5.5240    -0.0020     2.3600 ca         1 D48      -0.123500
      7 C6           6.2120    -0.0020     1.1480 ca         1 D48      -0.123500
      8 C7           5.5440    -0.0020    -0.0380 ca         1 D48      -0.115000
      9 C8           4.1380    -0.0010    -0.0440 ca         1 D48      -0.032000
     10 C9           3.4160    -0.0010    -1.2490 ca         1 D48      -0.147000
     11 C10          2.0510    -0.0060    -1.2190 ca         1 D48       0.098100
     12 O2           1.3550    -0.0120    -2.3870 oh         1 D48      -0.511600
     13 H1          -0.3140    -0.8500     0.2620 ho         1 D48       0.422500
     14 H2           1.4900    -0.0970     2.1180 ha         1 D48       0.144500
     15 H3           3.6420    -0.0010     3.3420 ha         1 D48       0.134000
     16 H4           6.0800    -0.0020     3.2890 ha         1 D48       0.130000
     17 H5           7.2960    -0.0030     1.1490 ha         1 D48       0.130000
     18 H6           6.0920    -0.0020    -0.9730 ha         1 D48       0.134000
     19 H7           3.9390    -0.0060    -2.1970 ha         1 D48       0.144500
     20 H8           1.4200     0.8350    -2.7960 ho         1 D48       0.422500
@<TRIPOS>BOND
     1     6     5 ar
     2     6     7 ar
     3     5     4 ar
     4     7     8 ar
     5     4     3 ar
     6     4     9 ar
     7     8     9 ar
     8     3     2 ar
     9     9    10 ar
    10     2     1 1
    11     2    11 ar
    12    10    11 ar
    13    11    12 1
    14     1    13 1
    15     3    14 1
    16     5    15 1
    17     6    16 1
    18     7    17 1
    19     8    18 1
    20    10    19 1
    21    12    20 1
@<TRIPOS>SUBSTRUCTURE
     1 D48         1 TEMP              0 ****  ****    0 ROOT
