@<TRIPOS>MOLECULE
molecule
   53    57     1     0     0
SMALL
bcc


@<TRIPOS>ATOM
      1 C4           0.0000     0.0000     0.0000 ca         1 D4A      -0.139500
      2 C14         -6.7310     0.4910    -2.5280 cc         1 D4A      -0.062100
      3 C5           0.0050    -0.0050     2.4040 ca         1 D4A      -0.139500
      4 C6           1.3820     0.0000     0.0000 ca         1 D4A      -0.144000
      5 C11         -2.1080    -1.7170    -0.4740 ca         1 D4A      -0.298300
      6 C7           1.3860     0.0010     2.4000 ca         1 D4A      -0.144000
      7 C8          -8.9280    -3.3750     2.8430 ca         1 D4A      -0.128000
      8 C9          -9.4690    -4.5270     5.3040 ca         1 D4A      -0.107000
      9 C10         -4.1900    -2.3190    -1.4600 ca         1 D4A      -0.257300
     10 C12         -6.9860    -1.7060    -3.1280 cd         1 D4A      -0.136000
     11 C13         -7.2900    -1.1790    -4.3160 cc         1 D4A      -0.071100
     12 C3          -2.8160    -2.4990    -1.3680 ca         1 D4A      -0.057000
     13 C1         -10.1270    -4.0280     3.0530 ca         1 D4A      -0.110000
     14 C2         -10.3970    -4.6030     4.2810 ca         1 D4A      -0.131000
     15 C15         -6.6740    -0.7840    -2.1440 cd         1 D4A      -0.109300
     16 C16         -0.6930     0.0000     1.2040 ca         1 D4A       0.147600
     17 C17          2.0750     0.0000     1.1980 ca         1 D4A       0.112900
     18 C18         -7.9910    -3.3000     3.8670 ca         1 D4A       0.019900
     19 C19         -8.2660    -3.8800     5.1000 ca         1 D4A       0.036400
     20 C20         -4.8050    -1.3820    -0.6550 ca         1 D4A       0.417600
     21 C21         -2.7920    -0.7870     0.3030 ca         1 D4A       0.696200
     22 C22         -6.5880    -1.9200     1.9330 ce         1 D4A      -0.189600
     23 C23         -6.6160    -0.6040     1.6560 c2         1 D4A       0.208900
     24 C24         -6.6630    -2.8930     0.8360 c          1 D4A       0.743800
     25 C25         -6.7340    -0.1050     0.2420 c3         1 D4A      -0.094200
     26 C26         -6.2980    -1.1920    -0.7420 c3         1 D4A       0.201800
     27 N27         -4.1040    -0.6490     0.1900 nb         1 D4A      -0.751000
     28 N28         -2.0910     0.0050     1.2060 nu         1 D4A      -0.776300
     29 O30         -6.9590    -2.4200    -0.4030 os         1 D4A      -0.411900
     30 O31         -6.5350     0.2880     2.6690 oh         1 D4A      -0.502100
     31 F32          3.4260     0.0050     1.1950 f          1 D4A      -0.139900
     32 S33         -7.2020     0.5760    -4.2210 ss         1 D4A      -0.145800
     33 S34         -6.4570    -2.4740     3.6010 ss         1 D4A      -0.097500
     34 Cl35        -7.1010    -3.7850     6.3840 cl         1 D4A      -0.097400
     35 H1          -0.5420     0.0020    -0.9380 ha         1 D4A       0.148500
     36 H2          -6.5220     1.3450    -1.8950 h4         1 D4A       0.174000
     37 H3          -0.5340    -0.0050     3.3440 ha         1 D4A       0.148500
     38 H4           1.9230    -0.0000    -0.9380 ha         1 D4A       0.149500
     39 H5          -1.0350    -1.8290    -0.3770 ha         1 D4A       0.157000
     40 H6           1.9300    -0.0010     3.3360 ha         1 D4A       0.149500
     41 H8          -9.6840    -4.9790     6.2640 ha         1 D4A       0.144000
     42 H9          -4.7740    -2.9160    -2.1510 ha         1 D4A       0.152000
     43 H10         -6.9770    -2.7740    -2.9500 ha         1 D4A       0.166000
     44 H11         -7.5580    -1.7450    -5.2000 h4         1 D4A       0.176000
     45 H12         -2.3090    -3.2290    -1.9870 ha         1 D4A       0.144000
     46 H13        -10.8570    -4.0880     2.2550 ha         1 D4A       0.134000
     47 H14        -11.3390    -5.1140     4.4430 ha         1 D4A       0.135000
     48 H15         -7.7640     0.1640     0.0430 hc         1 D4A       0.087200
     49 H16         -6.1000     0.7650     0.1160 hc         1 D4A       0.087200
     50 H17         -2.5880     0.5900     1.8480 hn         1 D4A       0.463800
     51 H18         -7.3860     0.6620     2.8260 ho         1 D4A       0.436000
     52 O29         -6.4660    -4.0790     1.0280 o          1 D4A      -0.536500
     53 H7          -8.7170    -2.9240     1.8810 ha         1 D4A       0.138000
@<TRIPOS>BOND
     1    31    17 1
     2    17     6 ar
     3    17     4 ar
     4     6     3 ar
     5     4     1 ar
     6     3    16 ar
     7     1    16 ar
     8    16    28 1
     9     8    14 ar
    10     8    19 ar
    11    14    13 ar
    12    34    19 1
    13    30    23 1
    14    19    18 ar
    15    13     7 ar
    16    28    21 1
    17    18     7 ar
    18    18    33 1
    19    33    22 1
    20    23    22 2
    21    23    25 1
    22    21    27 ar
    23    21     5 ar
    24    22    24 1
    25    27    20 ar
    26    25    26 1
    27     5    12 ar
    28    20    26 1
    29    20     9 ar
    30    24    52 2
    31    24    29 1
    32    26    29 1
    33    26    15 1
    34    12     9 ar
    35    15     2 2
    36    15    10 1
    37     2    32 1
    38    10    11 2
    39    32    11 1
    40     1    35 1
    41     2    36 1
    42     3    37 1
    43     4    38 1
    44     5    39 1
    45     6    40 1
    46     7    53 1
    47     8    41 1
    48     9    42 1
    49    10    43 1
    50    11    44 1
    51    12    45 1
    52    13    46 1
    53    14    47 1
    54    25    48 1
    55    25    49 1
    56    28    50 1
    57    30    51 1
@<TRIPOS>SUBSTRUCTURE
     1 D4A         1 TEMP              0 ****  ****    0 ROOT
