@<TRIPOS>MOLECULE
D4A
   53    57     1     0     0
SMALL
bcc


@<TRIPOS>ATOM
      1 C4           0.0000     0.0000     0.0000 ca         1 D4A      -0.114000
      2 C14         -6.7310     0.4910    -2.5280 cc         1 D4A       0.007900
      3 C5           0.0050    -0.0050     2.4040 ca         1 D4A      -0.114000
      4 C6           1.3820     0.0000     0.0000 ca         1 D4A      -0.105500
      5 C11         -2.1080    -1.7170    -0.4740 ca         1 D4A      -0.292300
      6 C7           1.3860     0.0010     2.4000 ca         1 D4A      -0.105500
      7 C8          -8.9280    -3.3750     2.8430 ca         1 D4A      -0.111000
      8 C9          -9.4690    -4.5270     5.3040 ca         1 D4A      -0.089000
      9 C10         -4.1900    -2.3190    -1.4600 ca         1 D4A      -0.234300
     10 C12         -6.9860    -1.7060    -3.1280 cd         1 D4A      -0.110000
     11 C13         -7.2900    -1.1790    -4.3160 cc         1 D4A       0.010900
     12 C3          -2.8160    -2.4990    -1.3680 ca         1 D4A      -0.018000
     13 C1         -10.1270    -4.0280     3.0530 ca         1 D4A      -0.084000
     14 C2         -10.3970    -4.6030     4.2810 ca         1 D4A      -0.097000
     15 C15         -6.6740    -0.7840    -2.1440 cd         1 D4A      -0.121300
     16 C16         -0.6930     0.0000     1.2040 ca         1 D4A      -0.005400
     17 C17          2.0750     0.0000     1.1980 ca         1 D4A       0.085900
     18 C18         -7.9910    -3.3000     3.8670 ca         1 D4A       0.066900
     19 C19         -8.2660    -3.8800     5.1000 ca         1 D4A      -0.017600
     20 C20         -4.8050    -1.3820    -0.6550 ca         1 D4A       0.355600
     21 C21         -2.7920    -0.7870     0.3030 ca         1 D4A       0.500200
     22 C22         -6.5880    -1.9200     1.9330 ce         1 D4A      -0.178600
     23 C23         -6.6160    -0.6040     1.6560 c2         1 D4A       0.242900
     24 C24         -6.6630    -2.8930     0.8360 c          1 D4A       0.809800
     25 C25         -6.7340    -0.1050     0.2420 c3         1 D4A      -0.053200
     26 C26         -6.2980    -1.1920    -0.7420 c3         1 D4A       0.218800
     27 N27         -4.1040    -0.6490     0.1900 nb         1 D4A      -0.630000
     28 N28         -2.0910     0.0050     1.2060 nu         1 D4A      -0.315300
     29 O30         -6.9590    -2.4200    -0.4030 os         1 D4A      -0.398900
     30 O31         -6.5350     0.2880     2.6690 oh         1 D4A      -0.477100
     31 F32          3.4260     0.0050     1.1950 f          1 D4A      -0.127900
     32 S33         -7.2020     0.5760    -4.2210 ss         1 D4A      -0.268800
     33 S34         -6.4570    -2.4740     3.6010 ss         1 D4A      -0.238500
     34 Cl35        -7.1010    -3.7850     6.3840 cl         1 D4A      -0.001400
     35 H1          -0.5420     0.0020    -0.9380 ha         1 D4A       0.122500
     36 H2          -6.5220     1.3450    -1.8950 h4         1 D4A       0.155000
     37 H3          -0.5340    -0.0050     3.3440 ha         1 D4A       0.122500
     38 H4           1.9230    -0.0000    -0.9380 ha         1 D4A       0.120500
     39 H5          -1.0350    -1.8290    -0.3770 ha         1 D4A       0.144000
     40 H6           1.9300    -0.0010     3.3360 ha         1 D4A       0.120500
     41 H8          -9.6840    -4.9790     6.2640 ha         1 D4A       0.115000
     42 H9          -4.7740    -2.9160    -2.1510 ha         1 D4A       0.130000
     43 H10         -6.9770    -2.7740    -2.9500 ha         1 D4A       0.138000
     44 H11         -7.5580    -1.7450    -5.2000 h4         1 D4A       0.151000
     45 H12         -2.3090    -3.2290    -1.9870 ha         1 D4A       0.110000
     46 H13        -10.8570    -4.0880     2.2550 ha         1 D4A       0.105000
     47 H14        -11.3390    -5.1140     4.4430 ha         1 D4A       0.106000
     48 H15         -7.7640     0.1640     0.0430 hc         1 D4A       0.057200
     49 H16         -6.1000     0.7650     0.1160 hc         1 D4A       0.057200
     50 H17         -2.5880     0.5900     1.8480 hn         1 D4A       0.296800
     51 H18         -7.3860     0.6620     2.8260 ho         1 D4A       0.416000
     52 O29         -6.4660    -4.0790     1.0280 o          1 D4A      -0.575500
     53 H7          -8.7170    -2.9240     1.8810 ha         1 D4A       0.117000
@<TRIPOS>BOND
     1     1     4 ar  
     2     1    16 ar  
     3     1    35 1   
     4     2    15 2   
     5     2    32 1   
     6     2    36 1   
     7     3     6 ar  
     8     3    16 ar  
     9     3    37 1   
    10     4    17 ar  
    11     4    38 1   
    12     5    12 ar  
    13     5    21 ar  
    14     5    39 1   
    15     6    17 ar  
    16     6    40 1   
    17     7    13 ar  
    18     7    18 ar  
    19     7    53 1   
    20     8    14 ar  
    21     8    19 ar  
    22     8    41 1   
    23     9    12 ar  
    24     9    20 ar  
    25     9    42 1   
    26    10    11 2   
    27    10    15 1   
    28    10    43 1   
    29    11    32 1   
    30    11    44 1   
    31    12    45 1   
    32    13    14 ar  
    33    13    46 1   
    34    14    47 1   
    35    15    26 1   
    36    16    28 1   
    37    17    31 1   
    38    18    19 ar  
    39    18    33 1   
    40    19    34 1   
    41    20    26 1   
    42    20    27 ar  
    43    21    27 ar  
    44    21    28 1   
    45    22    23 2   
    46    22    24 1   
    47    22    33 1   
    48    23    25 1   
    49    23    30 1   
    50    24    29 1   
    51    24    52 2   
    52    25    26 1   
    53    25    48 1   
    54    25    49 1   
    55    26    29 1   
    56    28    50 1   
    57    30    51 1   
@<TRIPOS>SUBSTRUCTURE
     1 D4A         1 TEMP              0 ****  ****    0 ROOT
