@<TRIPOS>MOLECULE
molecule
   22    23     1     0     0
SMALL
bcc


@<TRIPOS>ATOM
      1 C3           0.0000     0.0000     0.0000 ca         1 D4G      -0.246300
      2 C2           1.3780     0.0000     0.0000 ca         1 D4G       0.433200
      3 N_1          2.0560     0.0000     1.1330 nb         1 D4G      -0.688000
      4 C1           1.4540    -0.0000     2.3080 ca         1 D4G       0.433200
      5 C5           0.0790     0.0050     2.3970 ca         1 D4G      -0.246300
      6 C4          -0.6770    -0.0000     1.2220 ca         1 D4G       0.030400
      7 S_1         -2.4380     0.0000     1.2800 ss         1 D4G      -0.084400
      8 S_2         -2.7290    -0.0000     3.3190 ss         1 D4G      -0.084400
      9 C6          -2.6230     1.7280     3.6430 ca         1 D4G       0.030400
     10 C7          -2.3890     2.6390     2.6100 ca         1 D4G      -0.246300
     11 C8          -2.3170     3.9830     2.9060 ca         1 D4G       0.433200
     12 N_2         -2.4560     4.4110     4.1470 nb         1 D4G      -0.688000
     13 C9          -2.6740     3.5830     5.1520 ca         1 D4G       0.433200
     14 C10         -2.7640     2.2240     4.9420 ca         1 D4G      -0.246300
     15 H3          -0.5500    -0.0020    -0.9330 ha         1 D4G       0.155000
     16 H2           1.9120     0.0000    -0.9420 h4         1 D4G       0.029100
     17 H1           2.0480     0.0020     3.2140 h4         1 D4G       0.029100
     18 H5          -0.4090     0.0050     3.3640 ha         1 D4G       0.155000
     19 H7          -2.2740     2.2950     1.5890 ha         1 D4G       0.155000
     20 H8          -2.1380     4.6960     2.1110 h4         1 D4G       0.029100
     21 H9          -2.7820     3.9770     6.1550 h4         1 D4G       0.029100
     22 H10         -2.9430     1.5500     5.7710 ha         1 D4G       0.155000
@<TRIPOS>BOND
     1     1     2 ar
     2     1     6 ar
     3     1    15 1
     4     2     3 ar
     5     2    16 1
     6     3     4 ar
     7     4     5 ar
     8     4    17 1
     9     5     6 ar
    10     5    18 1
    11     6     7 1
    12     7     8 1
    13     8     9 1
    14     9    10 ar
    15     9    14 ar
    16    10    11 ar
    17    10    19 1
    18    11    12 ar
    19    11    20 1
    20    12    13 ar
    21    13    14 ar
    22    13    21 1
    23    14    22 1
@<TRIPOS>SUBSTRUCTURE
     1 D4G         1 TEMP              0 ****  ****    0 ROOT
