@<TRIPOS>MOLECULE
D4H
   40    42     1     0     0
SMALL
bcc


@<TRIPOS>ATOM
      1 C14          0.0000     0.0000     0.0000 c3         1 D4H       0.142800
      2 C10          3.7120    -0.5300     5.7930 ca         1 D4H      -0.097500
      3 C11          2.7690    -1.0710     4.9380 ca         1 D4H      -0.102500
      4 C12          0.6080    -0.0000     2.2640 c3         1 D4H       0.114500
      5 C02         -2.4050    -2.1890     5.1800 ca         1 D4H      -0.085300
      6 C03         -1.1790    -2.1420     4.5430 ca         1 D4H      -0.088000
      7 C04         -0.6190    -0.9210     4.2120 ca         1 D4H      -0.071300
      8 C05          0.7180    -0.8700     3.5180 c3         1 D4H       0.071900
      9 C06          1.7460    -0.2800     4.4500 ca         1 D4H      -0.078300
     10 C07          1.6630     1.0500     4.8170 ca         1 D4H      -0.102500
     11 C08          2.6060     1.5900     5.6720 ca         1 D4H      -0.097500
     12 C09          3.6300     0.8000     6.1600 ca         1 D4H      -0.105000
     13 C15          1.5440     0.0000     0.0000 c3         1 D4H      -0.027400
     14 C16          1.9440     0.0000     1.4910 c3         1 D4H      -0.027400
     15 C17         -1.2850     0.2500     4.5180 ca         1 D4H      -0.126000
     16 C18         -2.5110     0.2030     5.1540 ca         1 D4H      -0.093000
     17 C19         -3.0730    -1.0160     5.4810 ca         1 D4H      -0.106000
     18 N13         -0.3750    -0.5810     1.3150 n7         1 D4H      -0.578200
     19 H1          -0.3760    -0.6190    -0.8060 h1         1 D4H       0.008200
     20 H2          -0.3760     1.0120    -0.0850 h1         1 D4H       0.008200
     21 H4           2.8330    -2.1130     4.6500 ha         1 D4H       0.109500
     22 H5           0.3260     1.0130     2.5240 h1         1 D4H       0.018700
     23 H6          -2.7550    -4.2520     4.7870 hc         1 D4H       0.007367
     24 H7          -4.0930    -3.4190     5.5910 hc         1 D4H       0.007367
     25 H8          -2.6380    -3.8410     6.5030 hc         1 D4H       0.007367
     26 H9          -0.6450    -3.0590     4.3270 ha         1 D4H       0.111000
     27 H10          1.0180    -1.8730     3.2370 hc         1 D4H       0.048700
     28 H11          0.8610     1.6690     4.4340 ha         1 D4H       0.109500
     29 H12          2.5420     2.6320     5.9600 ha         1 D4H       0.101500
     30 H13          4.3680     1.2240     6.8300 ha         1 D4H       0.102000
     31 H14          1.9180     0.8910    -0.4890 hc         1 D4H       0.017200
     32 H15          1.9180    -0.8910    -0.4890 hc         1 D4H       0.017200
     33 H16          2.5130    -0.8910     1.7260 hc         1 D4H       0.023200
     34 H17          2.5130     0.8910     1.7260 hc         1 D4H       0.023200
     35 H18         -0.8450     1.2060     4.2600 ha         1 D4H       0.112000
     36 H19         -3.0330     1.1220     5.3920 ha         1 D4H       0.100000
     37 H20         -4.0340    -1.0530     5.9800 ha         1 D4H       0.105000
     38 H21         -1.2970    -0.2780     1.5630 hn         1 D4H       0.257800
     39 H3           4.5140    -1.1490     6.1760 ha         1 D4H       0.101500
     40 C01         -3.0160    -3.5190     5.5410 c3         1 D4H       0.064200
@<TRIPOS>BOND
     1     1    13 1   
     2     1    18 1   
     3     1    19 1   
     4     1    20 1   
     5     2     3 ar  
     6     2    12 ar  
     7     2    39 1   
     8     3     9 ar  
     9     3    21 1   
    10     4     8 1   
    11     4    14 1   
    12     4    18 1   
    13     4    22 1   
    14     5     6 ar  
    15     5    17 ar  
    16     5    40 1   
    17     6     7 ar  
    18     6    26 1   
    19     7     8 1   
    20     7    15 ar  
    21     8     9 1   
    22     8    27 1   
    23     9    10 ar  
    24    10    11 ar  
    25    10    28 1   
    26    11    12 ar  
    27    11    29 1   
    28    12    30 1   
    29    13    14 1   
    30    13    31 1   
    31    13    32 1   
    32    14    33 1   
    33    14    34 1   
    34    15    16 ar  
    35    15    35 1   
    36    16    17 ar  
    37    16    36 1   
    38    17    37 1   
    39    18    38 1   
    40    23    40 1   
    41    24    40 1   
    42    25    40 1   
@<TRIPOS>SUBSTRUCTURE
     1 D4H         1 TEMP              0 ****  ****    0 ROOT
