@<TRIPOS>MOLECULE
D4J
   53    57     1     0     0
SMALL
bcc


@<TRIPOS>ATOM
      1 C4           0.0000     0.0000     0.0000 ca         1 D4J      -0.084000
      2 C14          2.4250     6.7090    -0.2480 c          1 D4J       0.643700
      3 C5           1.3850     0.0120     2.3980 ca         1 D4J      -0.121500
      4 C6           2.0790     0.0000     1.2030 ca         1 D4J      -0.084000
      5 C11          1.8930     3.4630    -1.8750 ca         1 D4J       0.398600
      6 C7           1.3870     0.0000     0.0000 ca         1 D4J       0.101100
      7 C9           2.2000     1.1780    -1.8360 ca         1 D4J       0.618600
      8 C12          1.3920     4.7090    -1.1890 c3         1 D4J       0.050400
      9 C3          -0.6910     0.0060     1.1960 ca         1 D4J      -0.121500
     10 C2           0.0000     0.0120     2.3960 ca         1 D4J       0.101900
     11 O8           2.0680    -0.0000    -1.1770 os         1 D4J      -0.337400
     12 N10          1.7790     2.2970    -1.2700 nb         1 D4J      -0.639000
     13 N13          2.4610     5.7080    -1.1470 ns         1 D4J      -0.199900
     14 C15          1.3860     6.7220     0.7860 ce         1 D4J      -0.126600
     15 S16          1.0980     8.1780     1.7340 ss         1 D4J      -0.254500
     16 C17          0.4680     9.3120     0.5410 ca         1 D4J       0.086900
     17 C18          0.2300    10.6350     0.8950 ca         1 D4J      -0.017600
     18 C19         -0.2630    11.5210    -0.0450 ca         1 D4J      -0.089000
     19 C20         -0.5190    11.0910    -1.3340 ca         1 D4J      -0.098000
     20 C21         -0.2820     9.7760    -1.6890 ca         1 D4J      -0.089000
     21 C22          0.2160     8.8860    -0.7580 ca         1 D4J      -0.115000
     22 Cl23         0.5500    11.1730     2.5140 cl         1 D4J      -0.002400
     23 C24          0.6530     5.6130     1.0040 c2         1 D4J       0.193900
     24 O25         -0.3340     5.6270     1.9270 oh         1 D4J      -0.481100
     25 C26          0.9340     4.3590     0.2190 c3         1 D4J      -0.027200
     26 C28          0.2310     5.2740    -1.9660 cc         1 D4J      -0.157300
     27 C29         -1.0330     4.9220    -1.7250 cd         1 D4J       0.025900
     28 S30         -2.1040     5.7820    -2.8240 ss         1 D4J      -0.256800
     29 C31         -0.7350     6.5960    -3.5690 cd         1 D4J       0.011900
     30 C32          0.3960     6.2030    -2.9800 cc         1 D4J      -0.128000
     31 C33          2.4580     3.5570    -3.1320 ca         1 D4J      -0.247300
     32 C34          2.9160     2.4060    -3.7580 ca         1 D4J      -0.023000
     33 C35          2.7880     1.1980    -3.0950 ca         1 D4J      -0.235300
     34 H1          -0.5420    -0.0020    -0.9380 ha         1 D4J       0.118000
     35 H2           1.9260     0.0140     3.3370 ha         1 D4J       0.122000
     36 H3           3.1620    -0.0000     1.2050 ha         1 D4J       0.118000
     37 H4          -1.7740     0.0060     1.1960 ha         1 D4J       0.122000
     38 H5           3.2240     5.6460    -1.7920 hn         1 D4J       0.195500
     39 H6          -0.4500    12.5520     0.2290 ha         1 D4J       0.114000
     40 H7          -0.9070    11.7870    -2.0680 ha         1 D4J       0.104000
     41 H8          -0.4820     9.4440    -2.7010 ha         1 D4J       0.101000
     42 H9           0.4000     7.8550    -1.0370 ha         1 D4J       0.124000
     43 H10         -0.0030     5.2970     2.7460 ho         1 D4J       0.421000
     44 H11          1.7120     3.7920     0.7170 hc         1 D4J       0.059700
     45 H12          0.0300     3.7630     0.1620 hc         1 D4J       0.059700
     46 H13         -1.3510     4.2150    -0.9690 h4         1 D4J       0.162000
     47 H14         -0.8000     7.3120    -4.3800 h4         1 D4J       0.152000
     48 H15          1.3690     6.5750    -3.2770 ha         1 D4J       0.130000
     49 H16          2.5430     4.5190    -3.6240 ha         1 D4J       0.127000
     50 H17          3.3670     2.4530    -4.7420 ha         1 D4J       0.115000
     51 H18          3.1350     0.2810    -3.5540 ha         1 D4J       0.130000
     52 F1          -0.6760     0.0170     3.5650 f          1 D4J      -0.125900
     53 O27          3.2570     7.5960    -0.2900 o          1 D4J      -0.647500
@<TRIPOS>BOND
     1     1     6 ar  
     2     1     9 ar  
     3     1    34 1   
     4     2    13 1   
     5     2    14 1   
     6     2    53 2   
     7     3     4 ar  
     8     3    10 ar  
     9     3    35 1   
    10     4     6 ar  
    11     4    36 1   
    12     5     8 1   
    13     5    12 ar  
    14     5    31 ar  
    15     6    11 1   
    16     7    11 1   
    17     7    12 ar  
    18     7    33 ar  
    19     8    13 1   
    20     8    25 1   
    21     8    26 1   
    22     9    10 ar  
    23     9    37 1   
    24    10    52 1   
    25    13    38 1   
    26    14    15 1   
    27    14    23 2   
    28    15    16 1   
    29    16    17 ar  
    30    16    21 ar  
    31    17    18 ar  
    32    17    22 1   
    33    18    19 ar  
    34    18    39 1   
    35    19    20 ar  
    36    19    40 1   
    37    20    21 ar  
    38    20    41 1   
    39    21    42 1   
    40    23    24 1   
    41    23    25 1   
    42    24    43 1   
    43    25    44 1   
    44    25    45 1   
    45    26    27 2   
    46    26    30 1   
    47    27    28 1   
    48    27    46 1   
    49    28    29 1   
    50    29    30 2   
    51    29    47 1   
    52    30    48 1   
    53    31    32 ar  
    54    31    49 1   
    55    32    33 ar  
    56    32    50 1   
    57    33    51 1   
@<TRIPOS>SUBSTRUCTURE
     1 D4J         1 TEMP              0 ****  ****    0 ROOT
