@<TRIPOS>MOLECULE
molecule
   53    57     1     0     0
SMALL
bcc


@<TRIPOS>ATOM
      1 C4           0.0000     0.0000     0.0000 ca         1 D4J      -0.101500
      2 C14          2.4250     6.7090    -0.2480 c          1 D4J       0.717700
      3 C5           1.3850     0.0120     2.3980 ca         1 D4J      -0.161500
      4 C6           2.0790     0.0000     1.2030 ca         1 D4J      -0.101500
      5 C11          1.8930     3.4630    -1.8750 ca         1 D4J       0.458600
      6 C7           1.3870     0.0000     0.0000 ca         1 D4J       0.094100
      7 C9           2.2000     1.1780    -1.8360 ca         1 D4J       0.658600
      8 C12          1.3920     4.7090    -1.1890 c3         1 D4J       0.154400
      9 C3          -0.6910     0.0060     1.1960 ca         1 D4J      -0.161500
     10 C2           0.0000     0.0120     2.3960 ca         1 D4J       0.134900
     11 O8           2.0680    -0.0000    -1.1770 os         1 D4J      -0.354400
     12 N10          1.7790     2.2970    -1.2700 nb         1 D4J      -0.759000
     13 N13          2.4610     5.7080    -1.1470 ns         1 D4J      -0.578900
     14 C15          1.3860     6.7220     0.7860 ce         1 D4J      -0.146600
     15 S16          1.0980     8.1780     1.7340 ss         1 D4J      -0.118500
     16 C17          0.4680     9.3120     0.5410 ca         1 D4J       0.036900
     17 C18          0.2300    10.6350     0.8950 ca         1 D4J       0.037400
     18 C19         -0.2630    11.5210    -0.0450 ca         1 D4J      -0.108000
     19 C20         -0.5190    11.0910    -1.3340 ca         1 D4J      -0.132000
     20 C21         -0.2820     9.7760    -1.6890 ca         1 D4J      -0.113000
     21 C22          0.2160     8.8860    -0.7580 ca         1 D4J      -0.124000
     22 Cl23         0.5500    11.1730     2.5140 cl         1 D4J      -0.098400
     23 C24          0.6530     5.6130     1.0040 c2         1 D4J       0.165900
     24 O25         -0.3340     5.6270     1.9270 oh         1 D4J      -0.506100
     25 C26          0.9340     4.3590     0.2190 c3         1 D4J      -0.068200
     26 C28          0.2310     5.2740    -1.9660 cd         1 D4J      -0.146300
     27 C29         -1.0330     4.9220    -1.7250 cc         1 D4J      -0.050100
     28 S30         -2.1040     5.7820    -2.8240 ss         1 D4J      -0.136800
     29 C31         -0.7350     6.5960    -3.5690 cc         1 D4J      -0.074100
     30 C32          0.3960     6.2030    -2.9800 cd         1 D4J      -0.148000
     31 C33          2.4580     3.5570    -3.1320 ca         1 D4J      -0.270300
     32 C34          2.9160     2.4060    -3.7580 ca         1 D4J      -0.059000
     33 C35          2.7880     1.1980    -3.0950 ca         1 D4J      -0.256300
     34 H1          -0.5420    -0.0020    -0.9380 ha         1 D4J       0.149000
     35 H2           1.9260     0.0140     3.3370 ha         1 D4J       0.151000
     36 H3           3.1620    -0.0000     1.2050 ha         1 D4J       0.149000
     37 H4          -1.7740     0.0060     1.1960 ha         1 D4J       0.151000
     38 H5           3.2240     5.6460    -1.7920 hn         1 D4J       0.334500
     39 H6          -0.4500    12.5520     0.2290 ha         1 D4J       0.143000
     40 H7          -0.9070    11.7870    -2.0680 ha         1 D4J       0.133000
     41 H8          -0.4820     9.4440    -2.7010 ha         1 D4J       0.129000
     42 H9           0.4000     7.8550    -1.0370 ha         1 D4J       0.145000
     43 H10         -0.0030     5.2970     2.7460 ho         1 D4J       0.438000
     44 H11          1.7120     3.7920     0.7170 hc         1 D4J       0.090200
     45 H12          0.0300     3.7630     0.1620 hc         1 D4J       0.090200
     46 H13         -1.3510     4.2150    -0.9690 h4         1 D4J       0.179000
     47 H14         -0.8000     7.3120    -4.3800 h4         1 D4J       0.174000
     48 H15          1.3690     6.5750    -3.2770 ha         1 D4J       0.154000
     49 H16          2.5430     4.5190    -3.6240 ha         1 D4J       0.148000
     50 H17          3.3670     2.4530    -4.7420 ha         1 D4J       0.150000
     51 H18          3.1350     0.2810    -3.5540 ha         1 D4J       0.157000
     52 F1          -0.6760     0.0170     3.5650 f          1 D4J      -0.136900
     53 O27          3.2570     7.5960    -0.2900 o          1 D4J      -0.612500
@<TRIPOS>BOND
     1    52    10 1
     2    10     3 ar
     3    10     9 ar
     4     3     4 ar
     5     9     1 ar
     6     4     6 ar
     7     1     6 ar
     8     6    11 1
     9    11     7 1
    10     7    33 ar
    11     7    12 ar
    12    33    32 ar
    13    12     5 ar
    14    28    29 1
    15    28    27 1
    16    32    31 ar
    17    29    30 2
    18    27    26 2
    19     5    31 ar
    20     5     8 1
    21    30    26 1
    22    26     8 1
    23     8    25 1
    24     8    13 1
    25    25    23 1
    26    13     2 1
    27    20    21 ar
    28    20    19 ar
    29    23    24 1
    30    23    14 2
    31    21    16 ar
    32     2    14 1
    33     2    53 2
    34    19    18 ar
    35    14    15 1
    36    16    15 1
    37    16    17 ar
    38    18    17 ar
    39    17    22 1
    40     1    34 1
    41     3    35 1
    42     4    36 1
    43     9    37 1
    44    13    38 1
    45    18    39 1
    46    19    40 1
    47    20    41 1
    48    21    42 1
    49    24    43 1
    50    25    44 1
    51    25    45 1
    52    27    46 1
    53    29    47 1
    54    30    48 1
    55    31    49 1
    56    32    50 1
    57    33    51 1
@<TRIPOS>SUBSTRUCTURE
     1 D4J         1 TEMP              0 ****  ****    0 ROOT
