@<TRIPOS>MOLECULE
D4K
   41    43     1     0     0
SMALL
bcc


@<TRIPOS>ATOM
      1 C14          0.0000     0.0000     0.0000 ca         1 D4K      -0.098500
      2 C10          0.0010     0.0020     2.3950 ca         1 D4K      -0.098500
      3 C13          1.3820     0.0000     0.0000 ca         1 D4K      -0.099000
      4 C11          1.3840     0.0010     2.3940 ca         1 D4K      -0.099000
      5 C12          2.0750     0.0000     1.1970 ca         1 D4K      -0.103000
      6 C01         -2.1100     5.9500     0.4920 c3         1 D4K       0.244700
      7 C03         -2.3350     3.6370     0.1850 ca         1 D4K       0.125100
      8 C04         -3.6200     3.7320    -0.3280 ca         1 D4K      -0.175000
      9 C05         -4.4430     2.6170    -0.3460 ca         1 D4K      -0.067000
     10 C06         -3.9810     1.4080     0.1490 ca         1 D4K      -0.191000
     11 C07         -2.7000     1.3170     0.6630 ca         1 D4K      -0.047300
     12 C08         -2.1970     0.0000     1.1990 c3         1 D4K       0.067900
     13 C09         -0.6910     0.0010     1.1980 ca         1 D4K      -0.086300
     14 C15         -2.7080    -1.1390     0.3140 c3         1 D4K       0.122500
     15 C17         -4.6180    -2.5880     0.3020 c3         1 D4K       0.147800
     16 C18         -3.3420    -3.4570     0.2950 c3         1 D4K      -0.094400
     17 C19         -2.2700    -2.5070     0.8920 c3         1 D4K       0.002600
     18 C20         -1.8740     2.4280     0.6800 ca         1 D4K      -0.131000
     19 N16         -4.1860    -1.1790     0.3280 n7         1 D4K      -0.636200
     20 H1          -0.5420    -0.0000    -0.9380 ha         1 D4K       0.109500
     21 H2          -0.5400     0.0020     3.3330 ha         1 D4K       0.109500
     22 H3           1.9240    -0.0010    -0.9380 ha         1 D4K       0.102500
     23 H4           1.9260     0.0020     3.3320 ha         1 D4K       0.102500
     24 H5           3.1580     0.0000     1.1960 ha         1 D4K       0.102000
     25 H6          -1.3690     6.6510     0.8560 h1         1 D4K      -0.008633
     26 H7          -2.8460     5.7670     1.2660 h1         1 D4K      -0.008633
     27 H8          -2.6000     6.3640    -0.3820 h1         1 D4K      -0.008633
     28 H9          -3.9810     4.6770    -0.7150 ha         1 D4K       0.114000
     29 H10         -5.4460     2.6910    -0.7470 ha         1 D4K       0.099000
     30 H11         -4.6250     0.5360     0.1350 ha         1 D4K       0.164000
     31 H12         -2.5580    -0.1390     2.2110 hc         1 D4K       0.051700
     32 H13         -2.3460    -1.0270    -0.7010 h1         1 D4K       0.022700
     33 H14         -4.8640    -2.2780    -0.7070 h1         1 D4K       0.011200
     34 H15         -5.4410    -3.1370     0.7430 h1         1 D4K       0.011200
     35 H16         -3.2040    -3.9240     1.2630 hc         1 D4K       0.037200
     36 H17         -3.4050    -4.2070    -0.4840 hc         1 D4K       0.037200
     37 H18         -2.1380    -2.4340     1.9640 hc         1 D4K       0.026200
     38 H19         -1.3540    -2.8370     0.4160 hc         1 D4K       0.026200
     39 H20         -0.8700     2.3540     1.0810 ha         1 D4K       0.132000
     40 H21         -4.5430    -0.5510    -0.3640 hn         1 D4K       0.299800
     41 O02         -1.4850     4.7470     0.1490 os         1 D4K      -0.316900
@<TRIPOS>BOND
     1     1     3 ar  
     2     1    13 ar  
     3     1    20 1   
     4     2     4 ar  
     5     2    13 ar  
     6     2    21 1   
     7     3     5 ar  
     8     3    22 1   
     9     4     5 ar  
    10     4    23 1   
    11     5    24 1   
    12     6    25 1   
    13     6    26 1   
    14     6    27 1   
    15     6    41 1   
    16     7     8 ar  
    17     7    18 ar  
    18     7    41 1   
    19     8     9 ar  
    20     8    28 1   
    21     9    10 ar  
    22     9    29 1   
    23    10    11 ar  
    24    10    30 1   
    25    11    12 1   
    26    11    18 ar  
    27    12    13 1   
    28    12    14 1   
    29    12    31 1   
    30    14    17 1   
    31    14    19 1   
    32    14    32 1   
    33    15    16 1   
    34    15    19 1   
    35    15    33 1   
    36    15    34 1   
    37    16    17 1   
    38    16    35 1   
    39    16    36 1   
    40    17    37 1   
    41    17    38 1   
    42    18    39 1   
    43    19    40 1   
@<TRIPOS>SUBSTRUCTURE
     1 D4K         1 TEMP              0 ****  ****    0 ROOT
