@<TRIPOS>MOLECULE
molecule
   57    59     1     0     0
SMALL
bcc


@<TRIPOS>ATOM
      1 O1           0.0000     0.0000     0.0000 o          1 D4N      -0.420100
      2 C1           1.9670     0.0010    -1.3050 cx         1 D4N      -0.282000
      3 C2           6.8910    -4.7160    -6.7510 c3         1 D4N       0.599900
      4 C3           1.2130     0.0000     0.0000 c          1 D4N       0.547100
      5 C5           7.1950    -6.0270    -6.0250 c3         1 D4N       0.154100
      6 C6           1.1460    -0.0700    -2.5940 cx         1 D4N      -0.067400
      7 C7           6.8790    -7.2060    -6.9490 c3         1 D4N      -0.127100
      8 C8           6.3480    -6.1220    -4.7820 ca         1 D4N      -0.033300
      9 C9           6.9400    -6.0530    -3.5350 ca         1 D4N      -0.118500
     10 C10          6.1630    -6.1390    -2.3950 ca         1 D4N      -0.041500
     11 C11          4.7940    -6.2950    -2.5020 ca         1 D4N      -0.316500
     12 C12          4.2010    -6.3630    -3.7490 ca         1 D4N      -0.041500
     13 C13          4.9780    -6.2720    -4.8890 ca         1 D4N      -0.118500
     14 C14          1.8340     1.2360    -2.1970 cx         1 D4N      -0.067400
     15 C18          2.1090    -4.2790    -1.1770 c3         1 D4N       0.245800
     16 F3           5.5360    -4.6740    -7.0920 f          1 D4N      -0.221633
     17 O6           8.5770    -6.0630    -5.6640 oh         1 D4N      -0.578800
     18 O15          2.6160    -7.0870    -1.4240 o          1 D4N      -0.620800
     19 O16          4.6640    -6.8540    -0.0110 o          1 D4N      -0.620800
     20 N17          3.3500    -4.8640    -0.6470 n3         1 D4N      -0.823500
     21 C22          4.1780    -4.0430     0.2500 c3         1 D4N       0.248500
     22 C68          3.4470    -3.8340     1.5770 c3         1 D4N      -0.141100
     23 C21          4.4250    -2.6870    -0.4210 c3         1 D4N       0.136800
     24 C19          2.4380    -2.9150    -1.7920 c3         1 D4N       0.136800
     25 N20          3.1380    -2.0890    -0.7980 n3         1 D4N      -0.769600
     26 C23          3.3180    -0.7160    -1.2870 c3         1 D4N       0.177800
     27 N1           1.8870     0.0000     1.1670 nz         1 D4N      -0.673400
     28 H6           1.6070    -0.6100    -3.4130 hc         1 D4N       0.107700
     29 H6A          0.0710    -0.0910    -2.4640 hc         1 D4N       0.107700
     30 H7           5.8810    -7.0900    -7.3520 hc         1 D4N       0.066033
     31 H7A          7.5960    -7.2310    -7.7600 hc         1 D4N       0.066033
     32 H7B          6.9370    -8.1300    -6.3870 hc         1 D4N       0.066033
     33 H9           8.0120    -5.9170    -3.4510 ha         1 D4N       0.160500
     34 H10          6.6320    -6.1270    -1.4190 ha         1 D4N       0.152000
     35 H12          3.1290    -6.4920    -3.8330 ha         1 D4N       0.152000
     36 H13          4.4540    -6.5920    -5.7820 ha         1 D4N       0.160500
     37 H14          2.7150     1.4950    -2.7720 hc         1 D4N       0.107700
     38 H14A         1.1790     2.0140    -1.8230 hc         1 D4N       0.107700
     39 H18          1.6980    -4.9310    -1.9380 h1         1 D4N       0.071200
     40 H18A         1.3950    -4.1530    -0.3730 h1         1 D4N       0.071200
     41 HO6          9.0780    -6.4370    -6.3700 ho         1 D4N       0.429000
     42 H22          5.1250    -4.5390     0.4240 h1         1 D4N       0.091700
     43 H68          2.5630    -4.4480     1.7080 hc         1 D4N       0.061700
     44 H68A         3.3890    -2.8030     1.9040 hc         1 D4N       0.061700
     45 H68B         4.3810    -4.3310     1.8110 hc         1 D4N       0.061700
     46 H21          5.0300    -2.8290    -1.3090 h1         1 D4N       0.049200
     47 H21A         4.9380    -2.0310     0.2710 h1         1 D4N       0.049200
     48 H19          3.0740    -3.0530    -2.6580 h1         1 D4N       0.053200
     49 H19A         1.5190    -2.4220    -2.0870 h1         1 D4N       0.053200
     50 H23          3.7280    -0.7400    -2.2900 h1         1 D4N       0.057700
     51 H23A         3.9990    -0.1860    -0.6320 h1         1 D4N       0.057700
     52 HN1          1.4340     0.6150     1.8140 hn         1 D4N       0.479467
     53 HN1A         2.8250     0.3130     1.0110 hn         1 D4N       0.479467
     54 F4           7.1950    -3.6370    -5.9120 f          1 D4N      -0.221633
     55 H131         1.9020    -0.9270     1.5430 hn         1 D4N       0.479467
     56 S14          3.8040    -6.4050    -1.0490 sy         1 D4N       1.419200
     57 F1           7.6680    -4.6340    -7.9120 f          1 D4N      -0.221633
@<TRIPOS>BOND
     1     1     4 2
     2     2     4 1
     3     2     6 1
     4     2    14 1
     5     2    26 1
     6     3     5 1
     7     3    54 1
     8     3    57 1
     9     3    16 1
    10     4    27 1
    11     5     7 1
    12     5     8 1
    13     5    17 1
    14     6    14 1
    15     8     9 ar
    16     8    13 ar
    17     9    10 ar
    18    10    11 ar
    19    11    12 ar
    20    11    56 1
    21    12    13 ar
    22    15    20 1
    23    15    24 1
    24    56    18 2
    25    56    19 2
    26    56    20 1
    27    20    21 1
    28    21    22 1
    29    21    23 1
    30    23    25 1
    31    24    25 1
    32    25    26 1
    33     6    28 1
    34     6    29 1
    35     7    30 1
    36     7    31 1
    37     7    32 1
    38     9    33 1
    39    10    34 1
    40    12    35 1
    41    13    36 1
    42    14    37 1
    43    14    38 1
    44    15    39 1
    45    15    40 1
    46    17    41 1
    47    21    42 1
    48    22    43 1
    49    22    44 1
    50    22    45 1
    51    23    46 1
    52    23    47 1
    53    24    48 1
    54    24    49 1
    55    26    50 1
    56    26    51 1
    57    27    52 1
    58    27    53 1
    59    55    27 1
@<TRIPOS>SUBSTRUCTURE
     1 D4N         1 TEMP              0 ****  ****    0 ROOT
