@<TRIPOS>MOLECULE
D4S
   44    47     1     0     0
SMALL
bcc


@<TRIPOS>ATOM
      1 C4           0.0000     0.0000     0.0000 ca         1 D4S      -0.095000
      2 C14          6.6290    -0.7830     3.0180 c3         1 D4S       0.323400
      3 C5           1.3830     0.0000     0.0000 ca         1 D4S      -0.085000
      4 C6           2.0750     0.0000     1.1960 ca         1 D4S      -0.112000
      5 C7           1.3790     0.0010     2.3990 ca         1 D4S       0.063900
      6 C9           3.9360    -0.1820     3.4180 ce         1 D4S      -0.168600
      7 C10          4.8160     0.8170     3.6130 c2         1 D4S       0.217900
      8 C13          6.2500     0.6910     3.1780 c3         1 D4S      -0.059200
      9 C3          -0.6960     0.0060     1.1950 ca         1 D4S      -0.089000
     10 C2          -0.0110     0.0020     2.3940 ca         1 D4S      -0.015600
     11 S8           2.2580     0.0010     3.9270 ss         1 D4S      -0.236500
     12 O11          4.4020     1.9560     4.2110 oh         1 D4S      -0.485100
     13 C15          6.7110    -1.4340     4.3750 cc         1 D4S      -0.165300
     14 C16          7.0660    -0.7650     5.4720 cd         1 D4S       0.014900
     15 S17          7.0490    -1.8490     6.8560 ss         1 D4S      -0.265800
     16 C18          6.5460    -3.1910     5.8360 cd         1 D4S       0.019900
     17 C19          6.4170    -2.7720     4.5770 cc         1 D4S      -0.114000
     18 C20          7.9630    -0.8880     2.3250 ca         1 D4S      -0.062300
     19 C21          8.2360    -1.9760     1.5190 ca         1 D4S      -0.141000
     20 C22          9.4660    -2.0730     0.8810 ca         1 D4S       0.051600
     21 N23          9.7460    -3.1710     0.0630 nv         1 D4S      -0.467200
     22 C24         10.4160    -1.0750     1.0550 ca         1 D4S      -0.165000
     23 C25         10.1360     0.0100     1.8630 ca         1 D4S      -0.054000
     24 C26          8.9090     0.1060     2.4930 ca         1 D4S      -0.156000
     25 O27          5.6250    -1.4380     2.2300 os         1 D4S      -0.399900
     26 C28          4.3830    -1.4270     2.7810 c          1 D4S       0.811800
     27 O29          3.6690    -2.4120     2.7480 o          1 D4S      -0.576500
     28 H1          -0.5400     0.0020    -0.9390 ha         1 D4S       0.106000
     29 H2           1.9240    -0.0030    -0.9380 ha         1 D4S       0.105000
     30 H3           3.1580    -0.0000     1.1960 ha         1 D4S       0.114000
     31 H4           6.3810     1.1980     2.2290 hc         1 D4S       0.058200
     32 H5           6.8910     1.1460     3.9240 hc         1 D4S       0.058200
     33 H6          -1.7800     0.0060     1.1900 ha         1 D4S       0.116000
     34 H12          4.1100     2.5680     3.5550 ho         1 D4S       0.422000
     35 H7           7.3260     0.2870     5.5060 h4         1 D4S       0.154000
     36 H8           6.3610    -4.2010     6.1800 h4         1 D4S       0.151000
     37 H9           6.1150    -3.4310     3.7710 ha         1 D4S       0.142000
     38 H10          7.4920    -2.7510     1.3840 ha         1 D4S       0.127000
     39 H11         10.6840    -3.5110    -0.0130 hn         1 D4S       0.268800
     40 H13          9.0060    -3.6270    -0.4330 hn         1 D4S       0.268800
     41 H14         11.3770    -1.1490     0.5600 ha         1 D4S       0.109000
     42 H15         10.8760     0.7890     1.9980 ha         1 D4S       0.101000
     43 H16          8.6920     0.9580     3.1260 ha         1 D4S       0.107000
     44 Cl1         -0.8850     0.0090     3.8940 cl         1 D4S       0.002600
@<TRIPOS>BOND
     1     1     3 ar  
     2     1     9 ar  
     3     1    28 1   
     4     2     8 1   
     5     2    13 1   
     6     2    18 1   
     7     2    25 1   
     8     3     4 ar  
     9     3    29 1   
    10     4     5 ar  
    11     4    30 1   
    12     5    10 ar  
    13     5    11 1   
    14     6     7 2   
    15     6    11 1   
    16     6    26 1   
    17     7     8 1   
    18     7    12 1   
    19     8    31 1   
    20     8    32 1   
    21     9    10 ar  
    22     9    33 1   
    23    10    44 1   
    24    12    34 1   
    25    13    14 2   
    26    13    17 1   
    27    14    15 1   
    28    14    35 1   
    29    15    16 1   
    30    16    17 2   
    31    16    36 1   
    32    17    37 1   
    33    18    19 ar  
    34    18    24 ar  
    35    19    20 ar  
    36    19    38 1   
    37    20    21 1   
    38    20    22 ar  
    39    21    39 1   
    40    21    40 1   
    41    22    23 ar  
    42    22    41 1   
    43    23    24 ar  
    44    23    42 1   
    45    24    43 1   
    46    25    26 1   
    47    26    27 2   
@<TRIPOS>SUBSTRUCTURE
     1 D4S         1 TEMP              0 ****  ****    0 ROOT
