@<TRIPOS>MOLECULE
molecule
   15    15     1     0     0
SMALL
bcc


@<TRIPOS>ATOM
      1 C4           0.0000     0.0000     0.0000 ca         1 D4V       0.455200
      2 C5          -0.0670    -0.0010     2.3050 ca         1 D4V       0.652600
      3 C3           1.3800     0.0000     0.0000 ca         1 D4V      -0.289300
      4 C2           2.0580     0.0000     1.2120 ca         1 D4V      -0.065000
      5 C1           1.3200    -0.0010     2.3810 ca         1 D4V      -0.219600
      6 O           -0.8020    -0.0010     3.4450 oh         1 D4V      -0.607300
      7 C            2.0110    -0.0010     3.7210 c3         1 D4V      -0.032800
      8 N           -0.6770    -0.0010     1.1320 nb         1 D4V      -0.775000
      9 H5          -0.5340     0.0000    -0.9420 h4         1 D4V       0.023100
     10 H4           1.9280     0.0010    -0.9350 ha         1 D4V       0.139000
     11 H3           3.1410     0.0000     1.2410 ha         1 D4V       0.142000
     12 H1           1.7210     0.8820     4.2770 hc         1 D4V       0.046367
     13 H2           3.0850     0.0020     3.5730 hc         1 D4V       0.046367
     14 H            1.7250    -0.8870     4.2750 hc         1 D4V       0.046367
     15 H7          -1.7200    -0.0110     3.2270 ho         1 D4V       0.439000
@<TRIPOS>BOND
     1     4     3 ar
     2     4     5 ar
     3     3     1 ar
     4     7     5 1
     5     5     2 ar
     6     1     8 ar
     7     2     8 ar
     8     2     6 1
     9     1     9 1
    10     3    10 1
    11     4    11 1
    12     7    12 1
    13     7    13 1
    14     7    14 1
    15     6    15 1
@<TRIPOS>SUBSTRUCTURE
     1 D4V         1 TEMP              0 ****  ****    0 ROOT
