@<TRIPOS>MOLECULE
molecule
   31    33     1     0     0
SMALL
bcc


@<TRIPOS>ATOM
      1 C1           0.0000     0.0000     0.0000 cc         1 D4W      -0.008300
      2 C3          -0.8770    -0.0010    -1.1900 ca         1 D4W      -0.070000
      3 N6           1.7910     0.0000     1.3350 nd         1 D4W      -0.484800
      4 C7          -0.6440    -0.8990    -2.2310 ca         1 D4W      -0.063000
      5 C8          -1.9480     0.8980    -1.2740 ca         1 D4W       0.168100
      6 C9           0.7350     0.0030     2.1080 cc         1 D4W       0.331200
      7 C10          1.9610     0.9020    -2.1610 ca         1 D4W      -0.124000
      8 C11          3.2450    -0.9030    -1.2250 ca         1 D4W       0.030400
      9 C12         -1.4630    -0.8960    -3.3400 ca         1 D4W      -0.188000
     10 C13         -2.7640     0.8920    -2.3920 ca         1 D4W      -0.252000
     11 C14          2.7780     0.9000    -3.2750 ca         1 D4W      -0.120000
     12 C15          4.0580    -0.8990    -2.3420 ca         1 D4W      -0.116000
     13 C16         -2.5210    -0.0010    -3.4250 ca         1 D4W       0.152100
     14 N2           1.3650     0.0000     0.0000 na         1 D4W       0.136300
     15 C4          -0.4060     0.0060     1.3060 cc         1 D4W      -0.309300
     16 C5           2.1920    -0.0000    -1.1320 ca         1 D4W       0.036800
     17 C17          3.8240     0.0010    -3.3660 ca         1 D4W      -0.123000
     18 O19         -2.1840     1.7730    -0.2610 oh         1 D4W      -0.485100
     19 O20         -3.3240    -0.0030    -4.5200 oh         1 D4W      -0.520100
     20 H1           0.1810    -1.5990    -2.1680 ha         1 D4W       0.151000
     21 H2           0.7450     0.0050     3.1920 h4         1 D4W       0.050100
     22 H3           1.1420     1.6080    -2.0910 ha         1 D4W       0.153000
     23 H4          -1.2800    -1.5930    -4.1490 ha         1 D4W       0.147000
     24 H5          -3.5920     1.5880    -2.4610 ha         1 D4W       0.145000
     25 H6           2.5990     1.6040    -4.0790 ha         1 D4W       0.139000
     26 H7           4.8790    -1.6030    -2.4160 ha         1 D4W       0.150000
     27 H8          -1.4320     0.0090     1.6550 ha         1 D4W       0.162000
     28 H9           4.4630     0.0020    -4.2410 ha         1 D4W       0.139000
     29 H10         -3.0700     2.0920    -0.3210 ho         1 D4W       0.425000
     30 H11         -3.0040     0.6260    -5.1460 ho         1 D4W       0.424000
     31 Cl1          3.5370    -2.0330     0.0590 cl         1 D4W      -0.074400
@<TRIPOS>BOND
     1     6     3 2
     2     6    15 1
     3     3    14 1
     4    15     1 2
     5    14     1 1
     6    14    16 1
     7     1     2 1
     8     7    16 ar
     9     7    11 ar
    10    16     8 ar
    11     2     4 ar
    12     2     5 ar
    13    18     5 1
    14     4     9 ar
    15    11    17 ar
    16     8    31 1
    17     8    12 ar
    18     5    10 ar
    19    17    12 ar
    20     9    13 ar
    21    10    13 ar
    22    13    19 1
    23     4    20 1
    24     6    21 1
    25     7    22 1
    26     9    23 1
    27    10    24 1
    28    11    25 1
    29    12    26 1
    30    15    27 1
    31    17    28 1
    32    18    29 1
    33    19    30 1
@<TRIPOS>SUBSTRUCTURE
     1 D4W         1 TEMP              0 ****  ****    0 ROOT
