@<TRIPOS>MOLECULE
D4Y
   18    19     1     0     0
SMALL
bcc


@<TRIPOS>ATOM
      1 C7           0.0000     0.0000     0.0000 ca         1 D4Y      -0.148300
      2 C4           1.3680    -0.0000     2.3970 ca         1 D4Y      -0.093000
      3 C5           2.0680     0.0000     1.2010 ca         1 D4Y       0.076900
      4 C6           1.3760     0.0000     0.0000 ca         1 D4Y      -0.054000
      5 C3          -0.0110     0.0060     2.3980 ca         1 D4Y      -0.098000
      6 C2          -0.7120     0.0060     1.1930 ca         1 D4Y      -0.097400
      7 C1          -2.3560     0.0080    -0.3800 c          1 D4Y       0.595500
      8 F            3.4190     0.0010     1.2060 f          1 D4Y      -0.124900
      9 C           -1.0280     0.0010    -1.1080 c3         1 D4Y       0.172400
     10 O           -0.8940     1.1720    -1.9150 oh         1 D4Y      -0.551800
     11 N           -2.0840     0.0100     0.9360 ns         1 D4Y      -0.007100
     12 O1          -3.4560     0.0100    -0.8890 o          1 D4Y      -0.629500
     13 H4           1.9070    -0.0000     3.3360 ha         1 D4Y       0.120000
     14 H5           1.9190     0.0000    -0.9380 ha         1 D4Y       0.120000
     15 H3          -0.5500     0.0060     3.3370 ha         1 D4Y       0.111000
     16 H1          -0.9340    -0.8950    -1.7110 h1         1 D4Y       0.031700
     17 H           -0.8570     0.9250    -2.8240 ho         1 D4Y       0.397000
     18 H2          -2.7850     0.0140     1.6500 hn         1 D4Y       0.178500
@<TRIPOS>BOND
     1     1     4 ar  
     2     1     6 ar  
     3     1     9 1   
     4     2     3 ar  
     5     2     5 ar  
     6     2    13 1   
     7     3     4 ar  
     8     3     8 1   
     9     4    14 1   
    10     5     6 ar  
    11     5    15 1   
    12     6    11 1   
    13     7     9 1   
    14     7    11 1   
    15     7    12 2   
    16     9    10 1   
    17     9    16 1   
    18    10    17 1   
    19    11    18 1   
@<TRIPOS>SUBSTRUCTURE
     1 D4Y         1 TEMP              0 ****  ****    0 ROOT
