@<TRIPOS>MOLECULE
D50
   61    54     1     0     0
SMALL
bcc


@<TRIPOS>ATOM
      1 C1         -0.1760   -1.8410    0.0420 c3        1 D50     -0.237000
      2 N1          3.4890    1.6320   -0.7600 n         1 D50     -0.426000
      3 O1          4.3920    0.3230   -2.3980 o         1 D50     -0.456000
      4 C2          0.5780   -0.6510   -0.4930 c3        1 D50     -0.254000
      5 N2          6.7460    1.1070   -3.6530 n4        1 D50     -0.057000
      6 O2          6.4050    2.6160   -1.3210 oh        1 D50     -0.331000
      7 C3          1.8150   -0.3110    0.1610 c1        1 D50     -0.085000
      8 O3          6.3490   -0.9360   -6.9790 oh        1 D50     -0.258000
      9 C4          0.8180   -1.4970   -4.4170 c1        1 D50     -0.229000
     10 C5          1.7980   -1.1590   -3.8210 c1        1 D50     -0.229000
     11 C7          5.2960    2.5570   -2.2010 c3        1 D50     -0.023000
     12 C8          5.8620    2.3110   -3.6200 c3        1 D50     -0.051000
     13 C9          6.5930    3.5710   -4.0980 c3        1 D50     -0.137000
     14 C10         7.2680    3.3940   -5.4150 c2        1 D50     -0.127000
     15 C11         6.4120    2.9790   -6.5770 c3        1 D50      0.017000
     16 C12         6.3660    1.5570   -6.7340 c1        1 D50     -0.302000
     17 C13         6.3530    0.3750   -6.9270 c1        1 D50      0.002000
     18 C14         5.8640   -4.8690  -11.4330 c1        1 D50     -0.125000
     19 C15         5.7940   -3.7320  -11.0650 c1        1 D50     -0.146000
     20 C16         6.6940    0.2690  -13.7900 c2        1 D50     -0.190500
     21 C17         5.4890    0.0520  -13.3610 c1        1 D50     -0.161000
     22 C18         4.2750   -0.1620  -12.9490 c2        1 D50     -0.190500
     23 C19         5.9160   -1.8830   -9.4710 c1        1 D50      0.129000
     24 C20         5.7070   -2.4010  -10.6540 c2        1 D50     -0.268000
     25 C21         9.7940    3.9490   -5.7380 c2        1 D50     -0.141000
     26 C22         8.5410    3.6660   -5.5660 c1        1 D50     -0.134000
     27 C23         7.2780   -2.4700   -5.0960 c1        1 D50      0.463000
     28 H1         -1.1280   -1.9870   -0.5230 hc        1 D50      0.087667
     29 H1A         0.4370   -2.7700   -0.0580 hc        1 D50      0.087667
     30 H1B        -0.0670    0.2800   -0.4320 hc        1 D50      0.161500
     31 HN1         2.8240    0.8670   -0.4310 hn        1 D50      0.266000
     32 H2         -0.4270   -1.7010    1.1210 hc        1 D50      0.087667
     33 HN2         6.2000    0.2740   -3.3640 hn        1 D50      0.268333
     34 HN2A        7.5280    1.2330   -3.0070 hn        1 D50      0.268333
     35 HO2         6.0720    2.8310   -0.4390 ho        1 D50      0.239000
     36 H3          3.0830   -1.8990   -0.8120 ha        1 D50      0.012000
     37 H3A         2.0930   -0.8570    1.0730 ha        1 D50      0.079000
     38 H3B         3.3700   -1.3650   -1.1260 ha        1 D50      0.012000
     39 H4         -0.0520   -1.8010   -4.9460 ha        1 D50      0.229500
     40 H4A         0.7910   -0.7880   -1.5990 hc        1 D50      0.161500
     41 H5          2.6780   -0.8610   -3.2990 ha        1 D50      0.229500
     42 H7          4.7540    3.5460   -2.2180 h1        1 D50      0.123000
     43 H8          4.9920    2.0870   -4.3120 hx        1 D50      0.164000
     44 H9          7.3290    3.8930   -3.3120 hc        1 D50      0.126500
     45 H9A         5.8230    4.3860   -4.1930 hc        1 D50      0.126500
     46 H11         5.3690    3.3810   -6.4300 hc        1 D50      0.113000
     47 H12         6.8140    3.4400   -7.5250 hc        1 D50      0.113000
     48 H14         5.9270   -5.8780  -11.7600 ha        1 D50      0.241000
     49 H14A        6.1710   -1.2250   -7.9530 ho        1 D50      0.322000
     50 H16         6.8980    0.9170  -14.6550 ha        1 D50      0.137500
     51 H17         7.5810   -0.1820  -13.3210 ha        1 D50      0.137500
     52 H18         3.6570   -0.9820  -13.3440 ha        1 D50      0.137500
     53 H19         3.7840    0.4840  -12.2060 ha        1 D50      0.137500
     54 H20         5.4130   -1.6700  -11.4660 ha        1 D50      0.239000
     55 H21        10.1340    4.9650   -5.9980 ha        1 D50      0.154500
     56 H22        10.5910    3.1960   -5.6380 ha        1 D50      0.154500
     57 O5          7.3800   -1.5170   -4.3800 o         1 D50     -0.231500
     58 O4          7.1860   -3.4210   -5.7940 o         1 D50     -0.231500
     59 H121        3.4560    2.5180   -0.3230 hn        1 D50      0.266000
     60 H23         7.1020    0.9570   -4.6080 hn        1 D50      0.268333
     61 C6          4.3370    1.4220   -1.7820 c2        1 D50      0.261000
@<TRIPOS>BOND
     1    1    4 1   
     2    1   28 1   
     3    1   29 1   
     4    1   32 1   
     5    2   31 1   
     6    2   59 1   
     7    2   61 1   
     8    3   61 1   
     9    4    7 1   
    10    4   30 1   
    11    4   40 1   
    12    5   12 1   
    13    5   33 1   
    14    5   34 1   
    15    5   60 1   
    16    6   11 1   
    17    6   35 1   
    18    7   37 1   
    19    8   17 1   
    20    8   49 1   
    21    9   10 1   
    22    9   39 1   
    23   10   41 1   
    24   11   12 1   
    25   11   42 1   
    26   11   61 1   
    27   12   13 1   
    28   12   43 1   
    29   13   14 1   
    30   13   44 1   
    31   13   45 1   
    32   14   15 1   
    33   14   26 1   
    34   15   16 1   
    35   15   46 1   
    36   15   47 1   
    37   16   17 1   
    38   18   19 1   
    39   18   48 1   
    40   19   24 1   
    41   20   21 1   
    42   20   50 1   
    43   20   51 1   
    44   21   22 1   
    45   22   52 1   
    46   22   53 1   
    47   23   24 1   
    48   24   54 1   
    49   25   26 1   
    50   25   55 1   
    51   25   56 1   
    52   27   57 1   
    53   27   58 1   
    54   36   38 1   
@<TRIPOS>SUBSTRUCTURE
     1 D50         1 TEMP              0 ****  ****    0 ROOT
