@<TRIPOS>MOLECULE
molecule
   26    26     1     0     0
SMALL
bcc


@<TRIPOS>ATOM
      1 CAD          0.0000     0.0000     0.0000 ca         1 D53      -0.139000
      2 CAE          1.3820     0.0000     0.0000 ca         1 D53      -0.134500
      3 CAF         -0.6920     0.0010     1.1970 ca         1 D53      -0.134500
      4 CAG          2.0730     0.0000     1.1970 ca         1 D53      -0.116000
      5 CAH         -0.0000     0.0010     2.3940 ca         1 D53      -0.116000
      6 CAI          3.1170     1.4230     5.3940 c3         1 D53       0.178800
      7 CAJ          3.3550     2.8790     5.8020 c3         1 D53      -0.255600
      8 CAM          1.3820     0.0010     2.3940 ca         1 D53      -0.069300
      9 NAL          2.3830     1.3850     4.1220 n7         1 D53      -0.811200
     10 OAA          3.4460     2.4510     8.4340 o          1 D53      -0.707200
     11 OAB          5.5890     2.4470     7.1970 o          1 D53      -0.707200
     12 OAC          4.4340     4.4090     7.6670 o          1 D53      -0.707200
     13 SAN          4.2620     2.9260     7.3720 s6         1 D53       1.253800
     14 H1          -0.5410    -0.0000    -0.9380 ha         1 D53       0.118000
     15 H2           1.9230    -0.0010    -0.9380 ha         1 D53       0.120500
     16 H3          -1.7750     0.0010     1.1970 ha         1 D53       0.120500
     17 H4           3.1560     0.0000     1.1960 ha         1 D53       0.133500
     18 H5          -0.5420     0.0020     3.3330 ha         1 D53       0.133500
     19 H6           2.5380     0.9240     6.1610 h1         1 D53       0.033700
     20 H7           4.0700     0.9210     5.2770 h1         1 D53       0.033700
     21 H8           3.9340     3.3790     5.0350 h1         1 D53       0.079200
     22 H9           2.4030     3.3810     5.9200 h1         1 D53       0.079200
     23 H10          1.5490    -0.5090     4.4540 h1         1 D53       0.033700
     24 H11          3.0810    -0.5120     3.5700 h1         1 D53       0.033700
     25 H12          1.5090     1.8630     4.2270 hn         1 D53       0.350800
     26 CAK          2.1360     0.0000     3.6990 c3         1 D53       0.197100
@<TRIPOS>BOND
     1     1     3 ar
     2     1     2 ar
     3     3     5 ar
     4     2     4 ar
     5     5     8 ar
     6     4     8 ar
     7     8    26 1
     8    26     9 1
     9     9     6 1
    10     6     7 1
    11     7    13 1
    12    11    13 1
    13    13    10 1
    14    13    12 1
    15     1    14 1
    16     2    15 1
    17     3    16 1
    18     4    17 1
    19     5    18 1
    20     6    19 1
    21     6    20 1
    22     7    21 1
    23     7    22 1
    24    26    23 1
    25    26    24 1
    26     9    25 1
@<TRIPOS>SUBSTRUCTURE
     1 D53         1 TEMP              0 ****  ****    0 ROOT
