@<TRIPOS>MOLECULE
D53
   26    26     1     0     0
SMALL
bcc


@<TRIPOS>ATOM
      1 CAD          0.0000     0.0000     0.0000 ca         1 D53      -0.115000
      2 CAE          1.3820     0.0000     0.0000 ca         1 D53      -0.108500
      3 CAF         -0.6920     0.0010     1.1970 ca         1 D53      -0.108500
      4 CAG          2.0730     0.0000     1.1970 ca         1 D53      -0.088500
      5 CAH         -0.0000     0.0010     2.3940 ca         1 D53      -0.088500
      6 CAI          3.1170     1.4230     5.3940 c3         1 D53       0.173800
      7 CAJ          3.3550     2.8790     5.8020 c3         1 D53      -0.055600
      8 CAM          1.3820     0.0010     2.3940 ca         1 D53      -0.077300
      9 NAL          2.3830     1.3850     4.1220 n7         1 D53      -0.595200
     10 OAA          3.4460     2.4510     8.4340 o          1 D53      -0.660200
     11 OAB          5.5890     2.4470     7.1970 o          1 D53      -0.660200
     12 OAC          4.4340     4.4090     7.6670 o          1 D53      -0.660200
     13 SAN          4.2620     2.9260     7.3720 s6         1 D53       0.956800
     14 H1          -0.5410    -0.0000    -0.9380 ha         1 D53       0.093000
     15 H2           1.9230    -0.0010    -0.9380 ha         1 D53       0.095500
     16 H3          -1.7750     0.0010     1.1970 ha         1 D53       0.095500
     17 H4           3.1560     0.0000     1.1960 ha         1 D53       0.107500
     18 H5          -0.5420     0.0020     3.3330 ha         1 D53       0.107500
     19 H6           2.5380     0.9240     6.1610 h1         1 D53       0.010700
     20 H7           4.0700     0.9210     5.2770 h1         1 D53       0.010700
     21 H8           3.9340     3.3790     5.0350 h1         1 D53       0.052200
     22 H9           2.4030     3.3810     5.9200 h1         1 D53       0.052200
     23 H10          1.5490    -0.5090     4.4540 h1         1 D53       0.006700
     24 H11          3.0810    -0.5120     3.5700 h1         1 D53       0.006700
     25 H12          1.5090     1.8630     4.2270 hn         1 D53       0.251800
     26 CAK          2.1360     0.0000     3.6990 c3         1 D53       0.198100
@<TRIPOS>BOND
     1     1     2 ar  
     2     1     3 ar  
     3     1    14 1   
     4     2     4 ar  
     5     2    15 1   
     6     3     5 ar  
     7     3    16 1   
     8     4     8 ar  
     9     4    17 1   
    10     5     8 ar  
    11     5    18 1   
    12     6     7 1   
    13     6     9 1   
    14     6    19 1   
    15     6    20 1   
    16     7    13 1   
    17     7    21 1   
    18     7    22 1   
    19     8    26 1   
    20     9    25 1   
    21     9    26 1   
    22    10    13 1   
    23    11    13 1   
    24    12    13 1   
    25    23    26 1   
    26    24    26 1   
@<TRIPOS>SUBSTRUCTURE
     1 D53         1 TEMP              0 ****  ****    0 ROOT
