@<TRIPOS>MOLECULE
molecule
   19    18     1     0     0
SMALL
bcc


@<TRIPOS>ATOM
      1 OAA          0.0000     0.0000     0.0000 o          1 D54      -0.513100
      2 OAB          1.0320     0.0000     2.3910 oh         1 D54      -0.557800
      3 OAC          4.6060     3.1770     1.8270 o          1 D54      -0.559100
      4 OAD          5.1160     2.0480     5.0130 o          1 D54      -0.812800
      5 CAE          1.2080     0.0000     0.0000 c          1 D54       0.542900
      6 CAF          1.9610     0.0000     1.3050 c3         1 D54       0.015100
      7 CAG          2.8410     1.2480     1.3870 c3         1 D54       0.166100
      8 CAH          3.5100     1.3130     2.7610 c3         1 D54      -0.190400
      9 CAI          4.4690     2.4740     2.7990 c          1 D54       0.482100
     10 CAJ          5.2520     2.7540     4.0370 c          1 D54       0.808600
     11 OAK          2.0350     2.4120     1.1940 oh         1 D54      -0.580800
     12 OAL          6.1090     3.7900     4.0700 o          1 D54      -0.812800
     13 HAE          1.7500    -0.0550    -0.9370 h4         1 D54      -0.019800
     14 HAF          2.5830    -0.8850     1.3630 h1         1 D54       0.044700
     15 HAG          3.6020     1.2040     0.6170 h1         1 D54       0.040700
     16 HAH          4.0500     0.3920     2.9440 hc         1 D54       0.079700
     17 HAHA         2.7530     1.4450     3.5250 hc         1 D54       0.079700
     18 HOAK         2.2710     2.8270     0.3810 ho         1 D54       0.398000
     19 HOAB         0.7860    -0.8870     2.5930 ho         1 D54       0.390000
@<TRIPOS>BOND
     1     1     5 2
     2     2     6 1
     3     2    19 1
     4     9     3 2
     5     4    10 1
     6     6     5 1
     7     5    13 1
     8     6     7 1
     9     6    14 1
    10    11     7 1
    11     7     8 1
    12     7    15 1
    13     8     9 1
    14     8    16 1
    15     8    17 1
    16     9    10 1
    17    10    12 1
    18    11    18 1
@<TRIPOS>SUBSTRUCTURE
     1 D54         1 TEMP              0 ****  ****    0 ROOT
