@<TRIPOS>MOLECULE
D54
   19    18     1     0     0
SMALL
bcc


@<TRIPOS>ATOM
      1 OAA         0.3810   -0.7460   -0.2460 o         1 D54     -0.532100
      2 OAB         0.6320    0.2420    2.2920 oh        1 D54     -0.583800
      3 OAC         4.3100    3.5040    1.7710 o         1 D54     -0.606100
      4 OAD         6.4420    1.6920    3.4550 o         1 D54     -0.804800
      5 CAE         1.5170   -0.6140    0.2070 c         1 D54      0.545900
      6 CAF         1.8140   -0.0420    1.5750 c3        1 D54      0.031100
      7 CAG         2.7210    1.1980    1.4360 c3        1 D54      0.135100
      8 CAH         3.3940    1.5260    2.7590 c3        1 D54     -0.233400
      9 CAI         4.4140    2.6340    2.6470 c         1 D54      0.469100
     10 CAJ         5.5500    2.5510    3.6820 c         1 D54      0.861600
     11 OAK         1.8750    2.2450    0.9810 oh        1 D54     -0.640800
     12 OAL         5.4760    3.3080    4.6820 o         1 D54     -0.804800
     13 HAE         2.4170   -0.9150   -0.3740 h4        1 D54     -0.009800
     14 HAF         2.3420   -0.8270    2.1900 h1        1 D54      0.094700
     15 HAG         3.5090    1.0010    0.6540 h1        1 D54      0.043700
     16 HAH         2.6210    1.8330    3.5110 hc        1 D54      0.082200
     17 HAHA        3.9190    0.6140    3.1480 hc        1 D54      0.082200
     18 HOAK        2.3840    3.0670    1.0470 ho        1 D54      0.447000
     19 HOAB        0.2000    0.9810    1.8410 ho        1 D54      0.424000
@<TRIPOS>BOND
     1    1    5 2   
     2    2    6 1   
     3    2   19 1   
     4    3    9 2   
     5    4   10 1   
     6    5    6 1   
     7    5   13 1   
     8    6    7 1   
     9    6   14 1   
    10    7    8 1   
    11    7   11 1   
    12    7   15 1   
    13    8    9 1   
    14    8   16 1   
    15    8   17 1   
    16    9   10 1   
    17   10   12 1   
    18   11   18 1   
@<TRIPOS>SUBSTRUCTURE
     1 D54         1 TEMP              0 ****  ****    0 ROOT
