@<TRIPOS>MOLECULE
D55
   56    57     1     0     0
SMALL
bcc


@<TRIPOS>ATOM
      1 C3         -0.2680   -0.4380   -0.2230 c3        1 D55      0.127400
      2 C2          1.2210   -0.5690   -0.4330 c3        1 D55     -0.100100
      3 C5         -6.3400    0.5940    3.5320 c3        1 D55      0.126400
      4 C6         -7.6990    1.2420    3.6590 c3        1 D55     -0.101100
      5 C9         -2.4380    1.3510    0.8440 ca        1 D55     -0.098000
      6 C8         -3.7310    1.6810    1.2160 ca        1 D55     -0.161000
      7 C7         -4.3690    0.9210    2.2160 ca        1 D55      0.151100
      8 C31        -3.7240   -0.1500    2.8420 ca        1 D55     -0.222000
      9 C12        -2.4080   -0.4890    2.4700 ca        1 D55      0.080600
     10 N13        -1.6940   -1.5510    3.0540 n         1 D55     -0.449100
     11 C14        -2.0240   -2.2410    4.2060 c         1 D55      0.672700
     12 O15        -3.0870   -2.0900    4.8350 o         1 D55     -0.576100
     13 C16        -1.0060   -3.2330    4.6880 ca        1 D55     -0.113600
     14 C17        -0.3420   -4.0940    3.8140 ca        1 D55     -0.084500
     15 C18         0.5780   -5.0290    4.3050 ca        1 D55     -0.077300
     16 C19         1.2600   -5.9520    3.3700 c3        1 D55     -0.053300
     17 C20         0.8060   -5.0770    5.6910 ca        1 D55      0.071100
     18 O21         1.6370   -6.0890    6.1820 os        1 D55     -0.385900
     19 C22         2.9380   -5.6390    6.5680 c3        1 D55      0.103400
     20 C23         3.4210   -6.5970    7.6640 c3        1 D55      0.091800
     21 N24         3.2720   -8.0280    7.2690 n4        1 D55     -0.833600
     22 C28         0.1450   -4.2190    6.5860 ca        1 D55     -0.077300
     23 C29         0.3810   -4.2630    8.0470 c3        1 D55     -0.053300
     24 O3         -5.6530    1.3250    2.5050 os        1 D55     -0.325900
     25 C30        -0.7710   -3.2990    6.0650 ca        1 D55     -0.084500
     26 O8         -0.4500    0.0000    1.1350 os        1 D55     -0.358900
     27 C11        -1.7760    0.2780    1.4500 ca        1 D55      0.009100
     28 H2C1        1.6530   -1.3200    0.2700 hc        1 D55      0.046700
     29 H2C2        1.4170   -0.8950   -1.4820 hc        1 D55      0.046700
     30 H2C3        1.7280    0.4100   -0.2530 hc        1 D55      0.046700
     31 H3C1       -0.7120    0.3160   -0.9250 h1        1 D55      0.037700
     32 H3C2       -0.7910   -1.4210   -0.3600 h1        1 D55      0.037700
     33 H5C1       -6.4280   -0.4810    3.2250 h1        1 D55      0.043200
     34 H5C2       -5.7620    0.6670    4.4900 h1        1 D55      0.043200
     35 H6C1       -7.5950    2.3170    3.9410 hc        1 D55      0.052033
     36 H6C2       -8.2830    0.7100    4.4470 hc        1 D55      0.052033
     37 H6C3       -8.2520    1.1850    2.6910 hc        1 D55      0.052033
     38 H8         -4.2640    2.5220    0.7500 ha        1 D55      0.160000
     39 H31        -4.2390   -0.7260    3.6270 ha        1 D55      0.178000
     40 H9         -1.9170    1.9360    0.0710 ha        1 D55      0.149000
     41 H13        -0.7740   -1.6810    2.6860 hn        1 D55      0.332500
     42 H17        -0.5430   -4.0620    2.7310 ha        1 D55      0.165500
     43 H30        -1.3290   -2.6300    6.7430 ha        1 D55      0.165500
     44 H191        1.4810   -5.4430    2.3990 hc        1 D55      0.050700
     45 H192        2.2200   -6.3240    3.8030 hc        1 D55      0.050700
     46 H193        0.6030   -6.8350    3.1600 hc        1 D55      0.050700
     47 H221        2.9080   -4.5990    6.9920 h1        1 D55      0.087700
     48 H222        3.6080   -5.6680    5.6680 h1        1 D55      0.087700
     49 H231        4.5070   -6.3940    7.8880 hx        1 D55      0.117700
     50 H232        2.8080   -6.4390    8.5990 hx        1 D55      0.117700
     51 H241        3.5290   -8.6420    8.0460 hn        1 D55      0.467467
     52 H242        3.8630   -8.2360    6.4600 hn        1 D55      0.467467
     53 H291       -0.5890   -4.1830    8.6010 hc        1 D55      0.050700
     54 H292        0.8790   -5.2180    8.3470 hc        1 D55      0.050700
     55 H293        1.0310   -3.4060    8.3590 hc        1 D55      0.050700
     56 H243        2.2900   -8.1980    7.0050 hn        1 D55      0.467467
@<TRIPOS>BOND
     1    1    2 1
     2    1   26 1
     3    1   31 1
     4    1   32 1
     5    2   28 1
     6    2   29 1
     7    2   30 1
     8    3    4 1
     9    3   24 1
    10    3   33 1
    11    3   34 1
    12    4   35 1
    13    4   36 1
    14    4   37 1
    15    5    6 ar
    16    5   27 ar
    17    5   40 1
    18    6    7 ar
    19    6   38 1
    20    7    8 ar
    21    7   24 1
    22    8    9 ar
    23    8   39 1
    24    9   10 1
    25    9   27 ar
    26   10   11 1
    27   10   41 1
    28   11   12 2
    29   11   13 1
    30   13   14 ar
    31   13   25 ar
    32   14   15 ar
    33   14   42 1
    34   15   16 1
    35   15   17 ar
    36   16   44 1
    37   16   45 1
    38   16   46 1
    39   17   18 1
    40   17   22 ar
    41   18   19 1
    42   19   20 1
    43   19   47 1
    44   19   48 1
    45   20   21 1
    46   20   49 1
    47   20   50 1
    48   21   51 1
    49   21   52 1
    50   21   56 1
    51   22   23 1
    52   22   25 ar
    53   23   53 1
    54   23   54 1
    55   23   55 1
    56   25   43 1
    57   26   27 1
@<TRIPOS>SUBSTRUCTURE
     1 D55         1 TEMP              0 ****  ****    0 ROOT
