@<TRIPOS>MOLECULE
molecule
   64    66     1     0     0
SMALL
bcc


@<TRIPOS>ATOM
      1 N1           0.0000     0.0000     0.0000 nh         1 D56      -0.677000
      2 C2           1.4670     0.0000     0.0000 c3         1 D56       0.198300
      3 C3           2.0000     0.0000     1.4250 c3         1 D56      -0.079400
      4 C4           1.4720    -1.1930     2.2040 c3         1 D56      -0.079400
      5 C5          -0.0400    -1.2800     2.1000 c3         1 D56      -0.079400
      6 C6          -0.4910    -1.2230     0.6480 c3         1 D56       0.198300
      7 C7          -0.7040     0.3950    -1.1770 ca         1 D56       0.164600
      8 C8          -0.2860    -0.0320    -2.4310 ca         1 D56      -0.165000
      9 C9          -0.9880     0.3350    -3.5710 ca         1 D56       0.045400
     10 Cl          -0.4500    -0.2220    -5.1200 cl         1 D56      -0.079400
     11 C11         -2.1400     1.1240    -3.4650 ca         1 D56       0.063100
     12 C12         -2.5570     1.5640    -2.2120 ca         1 D56       0.054600
     13 N13         -3.7230     2.3480    -2.1480 ns         1 D56      -0.473100
     14 C14         -4.0230     3.3060    -1.2670 c          1 D56       0.677700
     15 O15         -3.1970     3.8360    -0.5630 o          1 D56      -0.548100
     16 C16         -5.4660     3.6670    -1.1790 ca         1 D56      -0.125600
     17 C17         -6.4050     2.6510    -1.0250 ca         1 D56      -0.083500
     18 C18         -7.7580     2.9380    -0.9110 ca         1 D56      -0.086300
     19 C10         -3.1140     3.0660    -6.4390 c3         1 D56      -0.098100
     20 C19         -8.7660     1.8330    -0.7420 c3         1 D56      -0.045800
     21 C20         -8.1640     4.2780    -0.9560 ca         1 D56       0.072100
     22 O21         -9.5010     4.5680    -0.8710 os         1 D56      -0.350900
     23 C22        -10.2890     4.3990    -2.0590 c3         1 D56       0.116400
     24 C23        -11.6540     3.8840    -1.6460 c3         1 D56       0.091800
     25 N24        -12.6790     4.9580    -1.7770 nz         1 D56      -0.818600
     26 C28         -7.2250     5.3160    -1.1180 ca         1 D56      -0.086300
     27 C29         -7.6710     6.7520    -1.1760 c3         1 D56      -0.045800
     28 C30         -5.8780     4.9930    -1.2240 ca         1 D56      -0.083500
     29 C31         -1.8470     1.1820    -1.0830 ca         1 D56      -0.130000
     30 O12         -2.8440     1.5430    -4.5690 os         1 D56      -0.360900
     31 C13         -2.5560     2.8890    -5.0630 c3         1 D56       0.140400
     32 H2C1         1.8230     0.8850    -0.5130 h1         1 D56       0.035200
     33 H2C2         1.8230    -0.8850    -0.5130 h1         1 D56       0.035200
     34 H6C1        -1.5730    -1.2340     0.6110 h1         1 D56       0.035200
     35 H6C2        -0.1010    -2.0850     0.1200 h1         1 D56       0.035200
     36 H3C1         1.6890     0.9120     1.9190 hc         1 D56       0.051200
     37 H3C2         3.0820    -0.0450     1.3980 hc         1 D56       0.051200
     38 H4C1         1.7510    -1.0880     3.2450 hc         1 D56       0.043700
     39 H4C2         1.9080    -2.1000     1.8020 hc         1 D56       0.043700
     40 H5C1        -0.4800    -0.4510     2.6400 hc         1 D56       0.051200
     41 H5C2        -0.3720    -2.2130     2.5370 hc         1 D56       0.051200
     42 H8           0.5910    -0.6610    -2.5190 ha         1 D56       0.155000
     43 H31         -2.1740     1.5260    -0.1100 ha         1 D56       0.163000
     44 H13         -4.4130     2.1640    -2.8480 hn         1 D56       0.328500
     45 H17         -6.0740     1.6200    -0.9900 ha         1 D56       0.159000
     46 H30         -5.1450     5.7800    -1.3490 ha         1 D56       0.159000
     47 H191        -9.2410     1.6280    -1.6940 hc         1 D56       0.049200
     48 H192        -9.5170     2.1360    -0.0220 hc         1 D56       0.049200
     49 H193        -8.2660     0.9390    -0.3880 hc         1 D56       0.049200
     50 H101        -4.0830     2.5870    -6.5010 hc         1 D56       0.048367
     51 H102        -3.2190     4.1230    -6.6530 hc         1 D56       0.048367
     52 H103        -2.4420     2.6170    -7.1610 hc         1 D56       0.048367
     53 H131        -1.4840     3.0400    -5.0880 h1         1 D56       0.036200
     54 H132        -3.0050     3.6180    -4.3980 h1         1 D56       0.036200
     55 H221       -10.3940     5.3500    -2.5670 h1         1 D56       0.069700
     56 H222        -9.8120     3.6830    -2.7170 h1         1 D56       0.069700
     57 H231       -11.9290     3.0500    -2.2800 hx         1 D56       0.122700
     58 H232       -11.6140     3.5520    -0.6160 hx         1 D56       0.122700
     59 H241       -12.4800     5.6900    -1.1240 hn         1 D56       0.459133
     60 H242       -12.6590     5.3260    -2.7070 hn         1 D56       0.459133
     61 H291        -8.4170     6.9300    -0.4100 hc         1 D56       0.049200
     62 H292        -6.8200     7.4020    -1.0100 hc         1 D56       0.049200
     63 H293        -8.0980     6.9590    -2.1500 hc         1 D56       0.049200
     64 H243       -13.5830     4.5830    -1.5690 hn         1 D56       0.459133
@<TRIPOS>BOND
     1     1     2 1
     2     1     6 1
     3     1     7 1
     4     2     3 1
     5     3     4 1
     6     4     5 1
     7     5     6 1
     8     7     8 ar
     9     7    29 ar
    10     8     9 ar
    11     9    10 1
    12     9    11 ar
    13    11    12 ar
    14    11    30 1
    15    12    13 1
    16    12    29 ar
    17    13    14 1
    18    14    15 2
    19    14    16 1
    20    16    17 ar
    21    16    28 ar
    22    17    18 ar
    23    18    20 1
    24    18    21 ar
    25    19    31 1
    26    21    22 1
    27    21    26 ar
    28    22    23 1
    29    23    24 1
    30    24    25 1
    31    26    27 1
    32    26    28 ar
    33    30    31 1
    34     2    32 1
    35     2    33 1
    36     6    34 1
    37     6    35 1
    38     3    36 1
    39     3    37 1
    40     4    38 1
    41     4    39 1
    42     5    40 1
    43     5    41 1
    44     8    42 1
    45    29    43 1
    46    13    44 1
    47    17    45 1
    48    28    46 1
    49    20    47 1
    50    20    48 1
    51    20    49 1
    52    19    50 1
    53    19    51 1
    54    19    52 1
    55    31    53 1
    56    31    54 1
    57    23    55 1
    58    23    56 1
    59    24    57 1
    60    24    58 1
    61    25    59 1
    62    25    60 1
    63    27    61 1
    64    27    62 1
    65    27    63 1
    66    64    25 1
@<TRIPOS>SUBSTRUCTURE
     1 D56         1 TEMP              0 ****  ****    0 ROOT
