@<TRIPOS>MOLECULE
molecule
   52    54     1     0     0
SMALL
bcc


@<TRIPOS>ATOM
      1 CAA          0.0000     0.0000     0.0000 c3         1 D57       0.138200
      2 CAC          2.0650     0.0000     1.2000 c          1 D57       0.667200
      3 CAE          3.5300     0.1130     1.2800 ca         1 D57      -0.169100
      4 CAF          4.3320    -1.0390     1.1820 ca         1 D57       0.218100
      5 CAH          5.7110    -0.9340     1.2550 ca         1 D57      -0.301000
      6 CAI          6.3070     0.3040     1.4250 ca         1 D57       0.218100
      7 CAK          5.5120     1.4620     1.5250 ca         1 D57      -0.169100
      8 CAL          6.1470     2.7780     1.7060 c          1 D57       0.667200
      9 CAO          7.0150     4.5510     3.0500 c3         1 D57       0.138200
     10 CAP          4.1260     1.3610     1.4460 ca         1 D57       0.049700
     11 CAQ          3.2710     2.5980     1.5510 c3         1 D57      -0.052100
     12 CAR          2.9320     3.1040     0.1480 c3         1 D57      -0.096700
     13 CAS          1.9730     4.2630     0.2500 cc         1 D57       0.400800
     14 CAU          0.1450     5.3990     0.4100 cc         1 D57       0.310200
     15 CAV          1.1560     6.2890     0.3730 cd         1 D57      -0.276600
     16 CAY          4.0730     6.2770    -1.2420 ca         1 D57      -0.123300
     17 CAZ          4.8080     5.2900    -1.8730 ca         1 D57      -0.106000
     18 CBA          5.1750     5.4410    -3.1970 ca         1 D57      -0.128500
     19 CBB          4.8060     6.5790    -3.8910 ca         1 D57      -0.117000
     20 CBC          4.0710     7.5660    -3.2600 ca         1 D57      -0.128500
     21 CBD          3.7010     7.4120    -1.9370 ca         1 D57      -0.106000
     22 NAT          0.6730     4.1680     0.3360 nc         1 D57      -0.698000
     23 NAW          2.3150     5.5690     0.2730 na         1 D57      -0.173900
     24 OAB          1.4520     0.0000     0.0000 os         1 D57      -0.418900
     25 OAD          1.4060    -0.0940     2.2180 o          1 D57      -0.538500
     26 OAG          3.7540    -2.2530     1.0160 oh         1 D57      -0.488600
     27 OAJ          7.6560     0.4010     1.4970 oh         1 D57      -0.488600
     28 OAM          6.4560     3.4420     0.7360 o          1 D57      -0.538500
     29 OAN          6.3870     3.2450     2.9470 os         1 D57      -0.418900
     30 H1          -0.3610     0.1860    -1.0040 h1         1 D57       0.051533
     31 H2          -0.3610    -0.9630     0.3400 h1         1 D57       0.051533
     32 H3          -0.3610     0.7760     0.6640 h1         1 D57       0.051533
     33 H4           6.3250    -1.8230     1.1790 ha         1 D57       0.147000
     34 H5           6.3310     5.3100     2.6900 h1         1 D57       0.051533
     35 H6           7.2640     4.7510     4.0850 h1         1 D57       0.051533
     36 H7           7.9180     4.5650     2.4520 h1         1 D57       0.051533
     37 H8           2.3560     2.3610     2.0810 hc         1 D57       0.073200
     38 H9           3.8120     3.3660     2.0910 hc         1 D57       0.073200
     39 H10          3.8390     3.4290    -0.3480 hc         1 D57       0.076700
     40 H11          2.4740     2.3060    -0.4230 hc         1 D57       0.076700
     41 H12         -0.9090     5.6360     0.4890 h4         1 D57       0.039100
     42 H13          1.0680     7.3680     0.4150 h4         1 D57       0.170000
     43 H14          4.3610     5.4340     0.6910 h1         1 D57       0.068700
     44 H15          3.7030     7.0760     0.6960 h1         1 D57       0.068700
     45 H16          5.0970     4.3990    -1.3290 ha         1 D57       0.138000
     46 H17          5.7510     4.6680    -3.6910 ha         1 D57       0.133000
     47 H18          5.0950     6.6980    -4.9280 ha         1 D57       0.131000
     48 H19          3.7810     8.4560    -3.8040 ha         1 D57       0.133000
     49 H20          3.1250     8.1850    -1.4430 ha         1 D57       0.138000
     50 H21          4.2330    -2.9000     1.5080 ho         1 D57       0.432000
     51 H22          8.0020    -0.3500     1.9490 ho         1 D57       0.432000
     52 CAX          3.6730     6.1130     0.2010 c3         1 D57       0.089600
@<TRIPOS>BOND
     1    14    15 2
     2    14    22 1
     3    15    23 1
     4    22    13 2
     5    23    52 1
     6    23    13 1
     7    52    16 1
     8    13    12 1
     9    16    21 ar
    10    16    17 ar
    11    21    20 ar
    12    12    11 1
    13     9    29 1
    14    17    18 ar
    15    20    19 ar
    16    29     8 1
    17    25     2 2
    18    11    10 1
    19    18    19 ar
    20     8     7 1
    21     8    28 2
    22    10     7 ar
    23    10     3 ar
    24     2     3 1
    25     2    24 1
    26     7     6 ar
    27     3     4 ar
    28     1    24 1
    29     6    27 1
    30     6     5 ar
    31     4    26 1
    32     4     5 ar
    33     1    30 1
    34     1    31 1
    35     1    32 1
    36     5    33 1
    37     9    34 1
    38     9    35 1
    39     9    36 1
    40    11    37 1
    41    11    38 1
    42    12    39 1
    43    12    40 1
    44    14    41 1
    45    15    42 1
    46    52    43 1
    47    52    44 1
    48    17    45 1
    49    18    46 1
    50    19    47 1
    51    20    48 1
    52    21    49 1
    53    26    50 1
    54    27    51 1
@<TRIPOS>SUBSTRUCTURE
     1 D57         1 TEMP              0 ****  ****    0 ROOT
