@<TRIPOS>MOLECULE
molecule
   49    52     1     0     0
SMALL
bcc


@<TRIPOS>ATOM
      1 C1           0.0000     0.0000     0.0000 c3         1 D58      -0.091100
      2 C2           1.5300     0.0000     0.0000 c3         1 D58       0.153500
      3 C3           3.4860     0.0420     1.4290 c3         1 D58       0.152800
      4 C7           1.4400    -2.4260    -2.8050 ca         1 D58       0.800200
      5 C8           1.6350    -4.7310    -2.8140 ca         1 D58       0.533200
      6 C9           1.1950    -4.8140    -4.1310 ca         1 D58      -0.386900
      7 C10          1.0800    -6.1200    -4.8000 c          1 D58       0.503700
      8 C11          0.8640    -3.6210    -4.8230 ca         1 D58       0.061900
      9 C12          0.2100    -1.6140    -6.2150 cc         1 D58       0.030400
     10 C13          0.5980    -1.2830    -4.9830 cd         1 D58      -0.121200
     11 C14          0.9820    -2.4030    -4.1490 ca         1 D58      -0.259100
     12 C15         -0.2280    -0.6440    -7.2410 ca         1 D58      -0.051800
     13 C16         -0.6170    -1.0900    -8.5060 ca         1 D58      -0.108000
     14 C19         -0.6730     1.6200    -7.9100 ca         1 D58      -0.118000
     15 C20         -0.2620     0.7200    -6.9480 ca         1 D58      -0.108000
     16 N1           2.0190     0.0000     1.3850 n7         1 D58      -0.811200
     17 C4           4.0540    -1.2060     0.7500 c3         1 D58      -0.076400
     18 C5           3.5700    -1.2550    -0.7020 c3         1 D58      -0.098400
     19 C6           2.0400    -1.2500    -0.7220 c3         1 D58       0.230500
     20 N2           1.5690    -1.2380    -2.1100 nu         1 D58      -0.842900
     21 N3           1.7400    -3.5640    -2.2080 nb         1 D58      -0.762000
     22 O1           0.6950    -6.1830    -5.9520 o          1 D58      -0.454100
     23 N4           1.4020    -7.2480    -4.1350 nz         1 D58      -0.674400
     24 S1           0.2880    -3.3480    -6.4580 ss         1 D58       0.056500
     25 C17         -1.0270    -0.1800    -9.4590 ca         1 D58      -0.118000
     26 C18         -1.0510     1.1710    -9.1630 ca         1 D58      -0.103000
     27 H1          -0.3610     0.3040    -0.9750 hc         1 D58       0.045033
     28 H2          -0.3610     0.6930     0.7510 hc         1 D58       0.045033
     29 H3          -0.3610    -0.9960     0.2250 hc         1 D58       0.045033
     30 H4           1.8950     0.8830    -0.5100 h1         1 D58       0.023700
     31 H5           3.8140     0.0700     2.4610 h1         1 D58       0.043200
     32 H6           3.8370     0.9250     0.9090 h1         1 D58       0.043200
     33 H7           1.8940    -5.6360    -2.2790 h4         1 D58      -0.003900
     34 H8           0.6240    -0.2580    -4.6330 ha         1 D58       0.160000
     35 H9          -0.5990    -2.1480    -8.7380 ha         1 D58       0.129500
     36 H10         -0.6970     2.6790    -7.6850 ha         1 D58       0.143500
     37 H11          0.0340     1.0720    -5.9670 ha         1 D58       0.129500
     38 H12          1.6480     0.7930     1.8700 hn         1 D58       0.371800
     39 H14          3.7110    -2.0900     1.2740 hc         1 D58       0.058200
     40 H15          5.1370    -1.1650     0.7680 hc         1 D58       0.058200
     41 H16          3.9350    -2.1600    -1.1740 hc         1 D58       0.049700
     42 H17          3.9410    -0.3880    -1.2360 hc         1 D58       0.049700
     43 H18          1.6700    -2.1340    -0.2170 h1         1 D58       0.101700
     44 H19          1.3730    -0.3690    -2.5650 hn         1 D58       0.463800
     45 H20          0.8190    -7.3370    -3.3270 hn         1 D58       0.472133
     46 H21          2.3610    -7.2050    -3.8510 hn         1 D58       0.472133
     47 H22         -1.3270    -0.5250   -10.4410 ha         1 D58       0.143500
     48 H23         -1.3740     1.8810    -9.9150 ha         1 D58       0.144000
     49 H43          1.2740    -8.0380    -4.7360 hn         1 D58       0.472133
@<TRIPOS>BOND
     1    23     7 1
     2     7    22 2
     3     7     6 1
     4     5     6 ar
     5     5    21 ar
     6     6     8 ar
     7    21     4 ar
     8     8    24 1
     9     8    11 ar
    10     4    11 ar
    11     4    20 1
    12    24     9 1
    13    11    10 1
    14    18    17 1
    15    18    19 1
    16    20    19 1
    17    17     3 1
    18    19     2 1
    19    10     9 2
    20     9    12 1
    21     3    16 1
    22    15    12 ar
    23    15    14 ar
    24    12    13 ar
    25     2    16 1
    26     2     1 1
    27    14    26 ar
    28    13    25 ar
    29    26    25 ar
    30     1    27 1
    31     1    28 1
    32     1    29 1
    33     2    30 1
    34     3    31 1
    35     3    32 1
    36     5    33 1
    37    10    34 1
    38    13    35 1
    39    14    36 1
    40    15    37 1
    41    16    38 1
    42    17    39 1
    43    17    40 1
    44    18    41 1
    45    18    42 1
    46    19    43 1
    47    20    44 1
    48    23    45 1
    49    23    46 1
    50    25    47 1
    51    26    48 1
    52    49    23 1
@<TRIPOS>SUBSTRUCTURE
     1 D58         1 TEMP              0 ****  ****    0 ROOT
