@<TRIPOS>MOLECULE
D59
   31    32     1     0     0
SMALL
bcc


@<TRIPOS>ATOM
      1 Cl1          0.0000     0.0000     0.0000 cl         1 D59      -0.011900
      2 C1           1.7370     0.0000     0.0000 ca         1 D59      -0.009100
      3 C2           2.4270     0.0000     1.1970 ca         1 D59      -0.114000
      4 C6           2.4270    -0.0060    -1.1990 ca         1 D59      -0.108000
      5 C5           3.8110    -0.0060    -1.2030 ca         1 D59      -0.009100
      6 Cl2          4.6740    -0.0130    -2.7090 cl         1 D59      -0.011900
      7 C4           4.5070    -0.0010    -0.0080 ca         1 D59      -0.114000
      8 C3           3.8160    -0.0000     1.1960 ca         1 D59      -0.069400
      9 N1           4.5170    -0.0000     2.4060 ns         1 D59      -0.038100
     10 C7           4.0550    -0.7120     3.4530 c          1 D59       0.590700
     11 O1           3.0790    -1.4250     3.3200 o          1 D59      -0.621100
     12 C8           4.7330    -0.6250     4.7630 ca         1 D59      -0.194600
     13 C9           4.3460    -1.4630     5.8110 ca         1 D59       0.097700
     14 C14          3.2330    -2.4590     5.6080 c3         1 D59      -0.046800
     15 C13          5.7690     0.2910     4.9570 ca         1 D59      -0.018000
     16 C12          6.3990     0.3660     6.1820 ca         1 D59      -0.141000
     17 C11          6.0060    -0.4630     7.2170 ca         1 D59       0.022000
     18 C10          4.9830    -1.3770     7.0300 ca         1 D59      -0.471200
     19 N2           4.5740    -2.2630     8.1430 no         1 D59       1.052200
     20 O2           5.2170    -2.2810     9.1760 o          1 D59      -0.444000
     21 O3           3.5930    -2.9760     8.0240 o          1 D59      -0.444000
     22 H1           1.8860     0.0010     2.1350 ha         1 D59       0.132000
     23 H2           1.8830    -0.0200    -2.1360 ha         1 D59       0.128000
     24 H3           5.5900    -0.0020    -0.0120 ha         1 D59       0.132000
     25 H4           5.3610     0.5310     2.4950 hn         1 D59       0.173500
     26 H5           2.2800    -1.9770     5.7860 hc         1 D59       0.061700
     27 H6           3.2650    -2.8340     4.5920 hc         1 D59       0.061700
     28 H7           3.3560    -3.2830     6.3010 hc         1 D59       0.061700
     29 H8           6.0780     0.9400     4.1460 ha         1 D59       0.103000
     30 H9           7.2020     1.0780     6.3340 ha         1 D59       0.119000
     31 H10          6.5030    -0.3990     8.1770 ha         1 D59       0.132000
@<TRIPOS>BOND
     1     1     2 1   
     2     2     3 ar  
     3     2     4 ar  
     4     3     8 ar  
     5     3    22 1   
     6     4     5 ar  
     7     4    23 1   
     8     5     6 1   
     9     5     7 ar  
    10     7     8 ar  
    11     7    24 1   
    12     8     9 1   
    13     9    10 1   
    14     9    25 1   
    15    10    11 2   
    16    10    12 1   
    17    12    13 ar  
    18    12    15 ar  
    19    13    14 1   
    20    13    18 ar  
    21    14    26 1   
    22    14    27 1   
    23    14    28 1   
    24    15    16 ar  
    25    15    29 1   
    26    16    17 ar  
    27    16    30 1   
    28    17    18 ar  
    29    17    31 1   
    30    18    19 1   
    31    19    20 1   
    32    19    21 1   
@<TRIPOS>SUBSTRUCTURE
     1 D59         1 TEMP              0 ****  ****    0 ROOT
