@<TRIPOS>MOLECULE
molecule
   31    32     1     0     0
SMALL
bcc


@<TRIPOS>ATOM
      1 Cl1          0.0000     0.0000     0.0000 cl         1 D59      -0.090400
      2 C1           1.7370     0.0000     0.0000 ca         1 D59       0.052900
      3 C2           2.4270     0.0000     1.1970 ca         1 D59      -0.137500
      4 C6           2.4270    -0.0060    -1.1990 ca         1 D59      -0.130000
      5 C5           3.8110    -0.0060    -1.2030 ca         1 D59       0.052900
      6 Cl2          4.6740    -0.0130    -2.7090 cl         1 D59      -0.090400
      7 C4           4.5070    -0.0010    -0.0080 ca         1 D59      -0.137500
      8 C3           3.8160    -0.0000     1.1960 ca         1 D59       0.073600
      9 N1           4.5170    -0.0000     2.4060 ns         1 D59      -0.476100
     10 C7           4.0550    -0.7120     3.4530 c          1 D59       0.679700
     11 O1           3.0790    -1.4250     3.3200 o          1 D59      -0.577100
     12 C8           4.7330    -0.6250     4.7630 ca         1 D59      -0.168600
     13 C9           4.3460    -1.4630     5.8110 ca         1 D59       0.050700
     14 C14          3.2330    -2.4590     5.6080 c3         1 D59      -0.093800
     15 C13          5.7690     0.2910     4.9570 ca         1 D59      -0.060000
     16 C12          6.3990     0.3660     6.1820 ca         1 D59      -0.153000
     17 C11          6.0060    -0.4630     7.2170 ca         1 D59      -0.039000
     18 C10          4.9830    -1.3770     7.0300 ca         1 D59      -0.173200
     19 N2           4.5740    -2.2630     8.1430 no         1 D59       0.296200
     20 O2           5.2170    -2.2810     9.1760 o          1 D59      -0.199500
     21 O3           3.5930    -2.9760     8.0240 o          1 D59      -0.199500
     22 H1           1.8860     0.0010     2.1350 ha         1 D59       0.160000
     23 H2           1.8830    -0.0200    -2.1360 ha         1 D59       0.160000
     24 H3           5.5900    -0.0020    -0.0120 ha         1 D59       0.160000
     25 H4           5.3610     0.5310     2.4950 hn         1 D59       0.328500
     26 H5           2.2800    -1.9770     5.7860 hc         1 D59       0.085367
     27 H6           3.2650    -2.8340     4.5920 hc         1 D59       0.085367
     28 H7           3.3560    -3.2830     6.3010 hc         1 D59       0.085367
     29 H8           6.0780     0.9400     4.1460 ha         1 D59       0.135000
     30 H9           7.2020     1.0780     6.3340 ha         1 D59       0.152000
     31 H10          6.5030    -0.3990     8.1770 ha         1 D59       0.169000
@<TRIPOS>BOND
     1    21    19 1
     2    14    13 1
     3    20    19 1
     4    19    18 1
     5    13    18 ar
     6    13    12 ar
     7    18    17 ar
     8    12    10 1
     9    12    15 ar
    10    17    16 ar
    11    10    11 2
    12    10     9 1
    13     9     8 1
    14    15    16 ar
    15     8     3 ar
    16     8     7 ar
    17     3     2 ar
    18     7     5 ar
    19     2     1 1
    20     2     4 ar
    21     5     4 ar
    22     5     6 1
    23     3    22 1
    24     4    23 1
    25     7    24 1
    26     9    25 1
    27    14    26 1
    28    14    27 1
    29    14    28 1
    30    15    29 1
    31    16    30 1
    32    17    31 1
@<TRIPOS>SUBSTRUCTURE
     1 D59         1 TEMP              0 ****  ****    0 ROOT
