@<TRIPOS>MOLECULE
molecule
   54    56     1     0     0
SMALL
bcc


@<TRIPOS>ATOM
      1 FBE          0.0000     0.0000     0.0000 f          1 D5C      -0.219633
      2 CBD          1.3990     0.0000     0.0000 c3         1 D5C       0.675200
      3 FBF          1.8660     0.0000     1.3200 f          1 D5C      -0.219633
      4 FBG          1.8660    -1.1420    -0.6590 f          1 D5C      -0.219633
      5 CBB          1.9010     1.2310    -0.7090 ca         1 D5C      -0.175300
      6 CBC          3.2590     1.4450    -0.8400 ca         1 D5C      -0.063000
      7 CBA          1.0020     2.1400    -1.2350 ca         1 D5C      -0.068000
      8 CAZ          1.4550     3.2720    -1.8890 ca         1 D5C      -0.129000
      9 CAY          2.8110     3.4990    -2.0200 ca         1 D5C      -0.088000
     10 CAX          3.7220     2.5840    -1.4970 cp         1 D5C      -0.062000
     11 CAU          5.1790     2.8200    -1.6400 cp         1 D5C       0.012000
     12 CAV          5.6390     3.9610    -2.2980 ca         1 D5C      -0.129000
     13 CAW          6.9910     4.1810    -2.4320 ca         1 D5C      -0.076000
     14 CAT          6.0890     1.9050    -1.1100 ca         1 D5C      -0.129000
     15 CAS          7.4420     2.1230    -1.2430 ca         1 D5C      -0.076000
     16 CAR          7.9030     3.2620    -1.9070 ca         1 D5C      -0.165600
     17 CAP          9.3540     3.4970    -2.0480 c          1 D5C       0.685700
     18 OAQ         10.1480     2.7000    -1.5870 o          1 D5C      -0.598100
     19 NAO          9.7990     4.5960    -2.6900 ns         1 D5C      -0.595900
     20 CAN         11.2390     4.8290    -2.8310 c3         1 D5C       0.111000
     21 CAL         11.4720     6.1360    -3.5920 c3         1 D5C      -0.131400
     22 CAK         12.9750     6.3800    -3.7390 c3         1 D5C       0.110500
     23 NAM         13.5680     6.5930    -2.4120 nz         1 D5C      -0.812600
     24 CAJ         13.2080     7.6190    -4.6070 c3         1 D5C      -0.045100
     25 CAD         14.6850     7.7880    -4.8530 ca         1 D5C      -0.190300
     26 CAE         15.2950     7.1090    -5.8930 ca         1 D5C       0.164900
     27 FAG         14.5670     6.2930    -6.6870 f          1 D5C      -0.117900
     28 CAF         16.6520     7.2640    -6.1210 ca         1 D5C      -0.167000
     29 CAA         17.3970     8.0990    -5.3080 ca         1 D5C       0.159900
     30 FAH         18.7220     8.2520    -5.5290 f          1 D5C      -0.088900
     31 CAB         16.7860     8.7800    -4.2660 ca         1 D5C       0.105900
     32 FAI         17.5120     9.5950    -3.4730 f          1 D5C      -0.098900
     33 CAC         15.4280     8.6270    -4.0440 ca         1 D5C      -0.153000
     34 H1           3.9630     0.7310    -0.4310 ha         1 D5C       0.148000
     35 H2          -0.0620     1.9660    -1.1340 ha         1 D5C       0.159000
     36 H3           0.7460     3.9810    -2.2970 ha         1 D5C       0.147000
     37 H4           3.1650     4.3860    -2.5320 ha         1 D5C       0.136000
     38 H5           4.9310     4.6730    -2.7050 ha         1 D5C       0.147500
     39 H6           7.3480     5.0660    -2.9460 ha         1 D5C       0.139000
     40 H7           5.7300     1.0220    -0.5950 ha         1 D5C       0.147500
     41 H8           8.1480     1.4110    -0.8330 ha         1 D5C       0.139000
     42 H9           9.1470     5.2410    -3.0900 hn         1 D5C       0.326500
     43 H10         11.6860     4.0080    -3.3780 h1         1 D5C       0.046700
     44 H11         11.6920     4.8980    -1.8490 h1         1 D5C       0.046700
     45 H12         11.0190     6.0670    -4.5740 hc         1 D5C       0.089200
     46 H13         11.0240     6.9570    -3.0450 hc         1 D5C       0.089200
     47 H14         13.4360     5.5190    -4.2070 hx         1 D5C       0.125700
     48 H15         13.1590     7.4020    -1.9900 hn         1 D5C       0.457800
     49 H16         14.5550     6.7280    -2.5060 hn         1 D5C       0.457800
     50 H18         12.8240     8.4940    -4.0980 hc         1 D5C       0.096700
     51 H19         12.6950     7.4980    -5.5540 hc         1 D5C       0.096700
     52 H20         17.1290     6.7320    -6.9350 ha         1 D5C       0.193000
     53 H21         14.9500     9.1580    -3.2310 ha         1 D5C       0.149000
     54 HAM3        13.4270     5.7770    -1.8490 hn         1 D5C       0.457800
@<TRIPOS>BOND
     1     4     2 1
     2     1     2 1
     3     3     2 1
     4     2     5 1
     5     5     7 ar
     6     5     6 ar
     7     7     8 ar
     8     6    10 ar
     9     8     9 ar
    10    10     9 ar
    11    10    11 1
    12    14    11 ar
    13    14    15 ar
    14    11    12 ar
    15    15    16 ar
    16    12    13 ar
    17    16    13 ar
    18    16    17 1
    19    18    17 2
    20    17    19 1
    21    19    20 1
    22    20    21 1
    23    21    22 1
    24    22    24 1
    25    22    23 1
    26    24    25 1
    27    33    25 ar
    28    33    31 ar
    29    32    31 1
    30    25    26 ar
    31    31    29 ar
    32    26    27 1
    33    26    28 ar
    34    29    28 ar
    35    29    30 1
    36     6    34 1
    37     7    35 1
    38     8    36 1
    39     9    37 1
    40    12    38 1
    41    13    39 1
    42    14    40 1
    43    15    41 1
    44    19    42 1
    45    20    43 1
    46    20    44 1
    47    21    45 1
    48    21    46 1
    49    22    47 1
    50    23    48 1
    51    23    49 1
    52    24    50 1
    53    24    51 1
    54    28    52 1
    55    33    53 1
    56    54    23 1
@<TRIPOS>SUBSTRUCTURE
     1 D5C         1 TEMP              0 ****  ****    0 ROOT
