@<TRIPOS>MOLECULE
molecule
   50    51     1     0     0
SMALL
bcc


@<TRIPOS>ATOM
      1 C4           0.0000     0.0000     0.0000 c3         1 D5E       0.126100
      2 C5           1.5310     0.0000     0.0000 c3         1 D5E       0.132100
      3 O4          -0.4760    -0.0010    -1.3470 os         1 D5E      -0.488600
      4 C6           2.0400     0.0000     1.4430 c3         1 D5E       0.092100
      5 N1           2.0190     1.2500     3.5490 nz         1 D5E      -0.804600
      6 O5           2.0070    -1.1660    -0.6740 oh         1 D5E      -0.596800
      7 O6           3.4690     0.0010     1.4420 oh         1 D5E      -0.580800
      8 N3          -1.9790     1.2480     0.7210 nz         1 D5E      -0.807600
      9 C1           1.5300     1.2490     2.1630 c3         1 D5E       0.105500
     10 C2          -0.0000     1.2490     2.1640 c3         1 D5E      -0.136400
     11 C3          -0.5100     1.2480     0.7220 c3         1 D5E       0.124500
     12 C1'         -0.6020    -1.3040    -1.9190 c3         1 D5E       0.313900
     13 C2'         -0.8590    -1.1800    -3.4230 c3         1 D5E       0.085500
     14 N2'          0.2360    -0.4240    -4.0470 nz         1 D5E      -0.803600
     15 C3'         -2.1830    -0.4430    -3.6470 c3         1 D5E       0.107100
     16 O3'         -2.4670    -0.3870    -5.0460 oh         1 D5E      -0.582800
     17 C4'         -3.3040    -1.2010    -2.9270 c3         1 D5E       0.115100
     18 O4'         -4.5320    -0.4840    -3.0700 oh         1 D5E      -0.585800
     19 C5'         -2.9520    -1.3240    -1.4420 c3         1 D5E       0.132100
     20 O5'         -1.6950    -1.9900    -1.3060 os         1 D5E      -0.372600
     21 C6'         -4.0380    -2.1320    -0.7280 c3         1 D5E       0.148400
     22 O6'         -3.7710    -2.1490     0.6770 oh         1 D5E      -0.656800
     23 H1          -0.3590    -0.8830     0.5150 h1         1 D5E       0.109700
     24 H2           1.8900     0.8870    -0.5070 h1         1 D5E       0.076700
     25 H3           1.6750    -0.8830     1.9530 h1         1 D5E       0.082700
     26 H4           1.8630     0.3500     3.9590 hn         1 D5E       0.477800
     27 H5           2.9990     1.4540     3.5570 hn         1 D5E       0.477800
     28 H7           2.9180    -1.0550    -0.8890 ho         1 D5E       0.462000
     29 H8           3.7840    -0.7930     1.8420 ho         1 D5E       0.460000
     30 H9          -2.3130     1.4480    -0.2010 hn         1 D5E       0.478800
     31 H10         -2.3130     0.3500     1.0100 hn         1 D5E       0.478800
     32 H12          1.8890     2.1320     1.6490 hx         1 D5E       0.142700
     33 H13         -0.3600     2.1360     2.6720 hc         1 D5E       0.101200
     34 H14         -0.3600     0.3630     2.6730 hc         1 D5E       0.101200
     35 H15         -0.1450     2.1320     0.2120 hx         1 D5E       0.134700
     36 H16          0.3110    -1.8650    -1.7560 h2         1 D5E       0.139700
     37 H17         -0.9190    -2.1690    -3.8610 hx         1 D5E       0.169700
     38 H18          0.1670     0.5400    -3.7870 hn         1 D5E       0.467467
     39 H19          1.1140    -0.7910    -3.7370 hn         1 D5E       0.467467
     40 H21         -2.1110     0.5600    -3.2460 h1         1 D5E       0.051700
     41 H22         -2.7630     0.4790    -5.2730 ho         1 D5E       0.454000
     42 H23         -3.4040    -2.1900    -3.3570 h1         1 D5E       0.100700
     43 H24         -5.0890    -0.9340    -3.6830 ho         1 D5E       0.459000
     44 H25         -2.8840    -0.3350    -1.0050 h1         1 D5E      -0.000300
     45 H26         -4.0410    -3.1460    -1.1070 h1         1 D5E       0.079700
     46 H27         -5.0040    -1.6760    -0.9060 h1         1 D5E       0.079700
     47 H28         -4.4140    -2.6840     1.1120 ho         1 D5E       0.457000
     48 H131         1.5290     1.9460     4.0760 hn         1 D5E       0.477800
     49 H33         -2.3130     1.9590     1.3430 hn         1 D5E       0.478800
     50 H2'3         0.1770    -0.5110    -5.0420 hn         1 D5E       0.467467
@<TRIPOS>BOND
     1    16    15 1
     2    14    13 1
     3    15    13 1
     4    15    17 1
     5    13    12 1
     6    18    17 1
     7    17    19 1
     8    12     3 1
     9    12    20 1
    10     3     1 1
    11    19    20 1
    12    19    21 1
    13    21    22 1
    14     1     2 1
    15     1    11 1
    16     8    11 1
    17     6     2 1
    18     2     4 1
    19    11    10 1
    20     4     7 1
    21     4     9 1
    22    10     9 1
    23     9     5 1
    24     1    23 1
    25     2    24 1
    26     4    25 1
    27     5    26 1
    28     5    27 1
    29     6    28 1
    30     7    29 1
    31     8    30 1
    32     8    31 1
    33     9    32 1
    34    10    33 1
    35    10    34 1
    36    11    35 1
    37    12    36 1
    38    13    37 1
    39    14    38 1
    40    14    39 1
    41    15    40 1
    42    16    41 1
    43    17    42 1
    44    18    43 1
    45    19    44 1
    46    21    45 1
    47    21    46 1
    48    22    47 1
    49    48     5 1
    50    49     8 1
    51    50    14 1
@<TRIPOS>SUBSTRUCTURE
     1 D5E         1 TEMP              0 ****  ****    0 ROOT
