@<TRIPOS>MOLECULE
molecule
   49    50     1     0     0
SMALL
bcc


@<TRIPOS>ATOM
      1 CAK          0.0000     0.0000     0.0000 ca         1 D5G      -0.115000
      2 CAI          1.3820     0.0000     0.0000 ca         1 D5G      -0.122500
      3 CAH          2.0740     0.0000     1.1980 ca         1 D5G      -0.127000
      4 CAJ          1.3860     0.0000     2.3970 ca         1 D5G      -0.122500
      5 CAL          0.0060     0.0070     2.4030 ca         1 D5G      -0.115000
      6 CAV         -0.6930     0.0010     1.2030 ca         1 D5G       0.034600
      7 NAP         -2.0920     0.0020     1.2060 ns         1 D5G      -0.413100
      8 CAU         -2.7680    -0.7550     0.3190 cs         1 D5G       0.608400
      9 SAG         -1.9200    -1.8250    -0.7160 s          1 D5G      -0.706400
     10 N           -4.1110    -0.6710     0.2460 ns         1 D5G      -0.505900
     11 CA          -4.8530    -1.5510    -0.6600 c3         1 D5G       0.042700
     12 CB          -5.1110    -2.8920     0.0290 c3         1 D5G      -0.088400
     13 CG          -5.8750    -3.8160    -0.9230 c3         1 D5G      -0.088700
     14 CD2         -4.9880    -4.1610    -2.1200 c3         1 D5G      -0.088600
     15 CD1         -6.2610    -5.1000    -0.1870 c3         1 D5G      -0.088600
     16 C           -6.1670    -0.9090    -1.0200 c          1 D5G       0.656100
     17 O           -6.6510    -0.0670    -0.2920 o          1 D5G      -0.620100
     18 NAQ         -6.8060    -1.2690    -2.1510 ns         1 D5G      -0.569900
     19 CAZ         -8.1030    -0.6730    -2.4810 c3         1 D5G       0.076700
     20 CAX         -9.2580    -1.4950    -1.8730 c3         1 D5G       0.122400
     21 OAF        -10.3080    -1.5530    -2.8450 os         1 D5G      -0.434600
     22 CAN         -8.3860    -0.7750    -4.0050 c3         1 D5G      -0.122400
     23 CAM         -9.9380    -0.8020    -4.0120 c3         1 D5G       0.339900
     24 OAE        -10.4210    -1.4480    -5.1910 oh         1 D5G      -0.588800
     25 HAK         -0.5420    -0.0020    -0.9380 ha         1 D5G       0.148000
     26 HAI          1.9240    -0.0000    -0.9380 ha         1 D5G       0.134000
     27 HAH          3.1570    -0.0030     1.1970 ha         1 D5G       0.130000
     28 HAJ          1.9310     0.0030     3.3330 ha         1 D5G       0.134000
     29 HAL         -0.5320     0.0070     3.3440 ha         1 D5G       0.148000
     30 HAP         -2.5880     0.4790     1.9330 hn         1 D5G       0.322500
     31 HN          -4.6010     0.0030     0.8000 hn         1 D5G       0.334500
     32 HA          -4.2720    -1.7140    -1.5610 h1         1 D5G       0.119700
     33 HB1         -4.1660    -3.3490     0.2950 hc         1 D5G       0.068700
     34 HB2         -5.6990    -2.7300     0.9240 hc         1 D5G       0.068700
     35 HG          -6.7710    -3.3160    -1.2700 hc         1 D5G       0.049700
     36 HD21        -4.0770    -4.6320    -1.7710 hc         1 D5G       0.038867
     37 HD22        -4.7410    -3.2540    -2.6600 hc         1 D5G       0.038867
     38 HD23        -5.5170    -4.8400    -2.7780 hc         1 D5G       0.038867
     39 HD11        -6.8820    -4.8540     0.6660 hc         1 D5G       0.038867
     40 HD12        -6.8090    -5.7500    -0.8580 hc         1 D5G       0.038867
     41 HD13        -5.3650    -5.6050     0.1530 hc         1 D5G       0.038867
     42 HAQ         -6.3690    -1.9000    -2.7920 hn         1 D5G       0.331500
     43 HAZ         -8.1540     0.3580    -2.1520 h1         1 D5G       0.091700
     44 HAX1        -9.6180    -1.0110    -0.9730 h1         1 D5G       0.059700
     45 HAX2        -8.9150    -2.4970    -1.6450 h1         1 D5G       0.059700
     46 HAN1        -7.9810    -1.6930    -4.4140 hc         1 D5G       0.073700
     47 HAN2        -8.0110     0.0950    -4.5290 hc         1 D5G       0.073700
     48 HAM        -10.3280     0.2060    -3.9440 h2         1 D5G       0.041700
     49 HAE        -11.2750    -1.1100    -5.4080 ho         1 D5G       0.414000
@<TRIPOS>BOND
     1     1     2 ar
     2     1     6 ar
     3     1    25 1
     4     2     3 ar
     5     2    26 1
     6     3     4 ar
     7     3    27 1
     8     4     5 ar
     9     4    28 1
    10     5     6 ar
    11     5    29 1
    12     6     7 1
    13     7     8 1
    14     7    30 1
    15     8     9 2
    16     8    10 1
    17    10    11 1
    18    10    31 1
    19    11    12 1
    20    11    16 1
    21    11    32 1
    22    12    13 1
    23    12    33 1
    24    12    34 1
    25    13    14 1
    26    13    15 1
    27    13    35 1
    28    14    36 1
    29    14    37 1
    30    14    38 1
    31    15    39 1
    32    15    40 1
    33    15    41 1
    34    16    17 2
    35    16    18 1
    36    18    19 1
    37    18    42 1
    38    19    20 1
    39    19    22 1
    40    19    43 1
    41    20    21 1
    42    20    44 1
    43    20    45 1
    44    21    23 1
    45    22    23 1
    46    22    46 1
    47    22    47 1
    48    23    24 1
    49    23    48 1
    50    24    49 1
@<TRIPOS>SUBSTRUCTURE
     1 D5G         1 TEMP              0 ****  ****    0 ROOT
