@<TRIPOS>MOLECULE
D5H
   43    45     1     0     0
SMALL
bcc


@<TRIPOS>ATOM
      1 F            0.0000     0.0000     0.0000 f          1 D5H      -0.124900
      2 C9           1.3510     0.0000     0.0000 ca         1 D5H       0.074900
      3 C8           2.0410     0.0000     1.1960 ca         1 D5H      -0.115000
      4 C7           3.4350     0.0000     1.1940 cp         1 D5H      -0.067000
      5 C5           4.1790     0.0000     2.4780 cp         1 D5H       0.039000
      6 C4           3.4860     0.0010     3.6880 ca         1 D5H      -0.150000
      7 C3           4.1810     0.0000     4.8800 ca         1 D5H      -0.057000
      8 C2           5.5640    -0.0010     4.8800 ca         1 D5H      -0.229000
      9 C1           6.2600    -0.0000     3.6800 ca         1 D5H       0.149100
     10 O            7.6200    -0.0020     3.6840 os         1 D5H      -0.310900
     11 C            8.2650    -0.0020     4.9590 c3         1 D5H       0.244700
     12 C6           5.5710    -0.0060     2.4770 ca         1 D5H      -0.148000
     13 C12          4.1300    -0.0000    -0.0140 ca         1 D5H      -0.089000
     14 C11          3.4370    -0.0010    -1.2070 ca         1 D5H      -0.103000
     15 C10          2.0470    -0.0060    -1.2050 ca         1 D5H      -0.062400
     16 N            1.3480    -0.0070    -2.4150 ns         1 D5H      -0.010100
     17 C13          1.8410     0.6570    -3.4790 c          1 D5H       0.662300
     18 O1           2.9290     1.1950    -3.4090 o          1 D5H      -0.653100
     19 C14          1.0610     0.7310    -4.7290 ce         1 D5H      -0.288400
     20 C15          0.0930     1.6260    -4.9740 cf         1 D5H      -0.063400
     21 C19         -0.3400     2.6740    -4.0300 c          1 D5H       0.972800
     22 O3           0.1260     2.7120    -2.9090 o          1 D5H      -0.875300
     23 O2          -1.2520     3.5890    -4.4120 o          1 D5H      -0.875300
     24 C18          1.2440    -0.1870    -5.9150 c3         1 D5H       0.056800
     25 C17         -0.0380    -0.0090    -6.7590 c3         1 D5H      -0.042400
     26 C16         -0.4920     1.4110    -6.3500 c3         1 D5H       0.023800
     27 H1           1.5000     0.0460     2.1330 ha         1 D5H       0.118000
     28 H2           2.4020     0.0010     3.6920 ha         1 D5H       0.117000
     29 H3           3.6420     0.0000     5.8200 ha         1 D5H       0.094000
     30 H4           6.1050    -0.0010     5.8180 ha         1 D5H       0.113000
     31 H5           7.9720    -0.8860     5.5120 h1         1 D5H      -0.006633
     32 H6           9.3400    -0.0030     4.8200 h1         1 D5H      -0.006633
     33 H7           7.9730     0.8830     5.5120 h1         1 D5H      -0.006633
     34 H8           6.1140    -0.0060     1.5400 ha         1 D5H       0.128000
     35 H9           5.2130     0.0020    -0.0170 ha         1 D5H       0.107000
     36 H10          3.9760    -0.0040    -2.1460 ha         1 D5H       0.151000
     37 H11          0.5000    -0.5320    -2.5020 hn         1 D5H       0.172500
     38 H13          2.1150     0.1090    -6.4880 hc         1 D5H       0.000200
     39 H14          1.3360    -1.2140    -5.5840 hc         1 D5H       0.000200
     40 H15          0.1900    -0.0510    -7.8180 hc         1 D5H       0.003700
     41 H16         -0.7840    -0.7460    -6.4860 hc         1 D5H       0.003700
     42 H17         -1.5730     1.4620    -6.3100 hc         1 D5H       0.027200
     43 H18         -0.0990     2.1450    -7.0430 hc         1 D5H       0.027200
@<TRIPOS>BOND
     1     1     2 1   
     2     2     3 ar  
     3     2    15 ar  
     4     3     4 ar  
     5     3    27 1   
     6     4     5 1   
     7     4    13 ar  
     8     5     6 ar  
     9     5    12 ar  
    10     6     7 ar  
    11     6    28 1   
    12     7     8 ar  
    13     7    29 1   
    14     8     9 ar  
    15     8    30 1   
    16     9    10 1   
    17     9    12 ar  
    18    10    11 1   
    19    11    31 1   
    20    11    32 1   
    21    11    33 1   
    22    12    34 1   
    23    13    14 ar  
    24    13    35 1   
    25    14    15 ar  
    26    14    36 1   
    27    15    16 1   
    28    16    17 1   
    29    16    37 1   
    30    17    18 2   
    31    17    19 1   
    32    19    20 2   
    33    19    24 1   
    34    20    21 1   
    35    20    26 1   
    36    21    22 1   
    37    21    23 1   
    38    24    25 1   
    39    24    38 1   
    40    24    39 1   
    41    25    26 1   
    42    25    40 1   
    43    25    41 1   
    44    26    42 1   
    45    26    43 1   
@<TRIPOS>SUBSTRUCTURE
     1 D5H         1 TEMP              0 ****  ****    0 ROOT
