@<TRIPOS>MOLECULE
D5I
   43    46     1     0     0
SMALL
bcc


@<TRIPOS>ATOM
      1 O1           0.0000     0.0000     0.0000 o          1 D5I      -0.654100
      2 C2           1.2120     0.0000     0.0000 c          1 D5I       0.586100
      3 C3           1.9660     0.0000     1.3050 c3         1 D5I      -0.124000
      4 C4           0.9720    -0.0000     2.4680 c3         1 D5I      -0.008067
      5 C5           1.7360    -0.0000     3.7940 c3         1 D5I      -0.039700
      6 C12          2.6160    -1.2490     3.8750 c3         1 D5I      -0.017733
      7 C10          3.6110    -1.2500     2.7110 c3         1 D5I      -0.039700
      8 C11          2.8450    -1.2490     1.3860 c3         1 D5I      -0.008067
      9 C6           2.6170     1.2490     3.8740 c3         1 D5I      -0.017733
     10 C7           3.6110     1.2490     2.7120 c3         1 D5I      -0.039700
     11 C9           4.4900    -0.0010     2.7930 c3         1 D5I      -0.017733
     12 C8           2.8460     1.2490     1.3870 c3         1 D5I      -0.008067
     13 N13          1.8870    -0.0060    -1.1670 ns         1 D5I      -0.153500
     14 N14          1.1860    -0.0110    -2.3810 ns         1 D5I      -0.139500
     15 C15          1.8590    -0.0170    -3.5470 c          1 D5I       0.594700
     16 O16          3.0750    -0.0170    -3.5480 o          1 D5I      -0.656100
     17 C17          1.1190    -0.0230    -4.8310 ca         1 D5I      -0.124600
     18 C18          1.7990    -0.0290    -6.0520 ca         1 D5I      -0.179300
     19 C19          1.0680    -0.0350    -7.2250 ca         1 D5I       0.397700
     20 N20         -0.2500    -0.0350    -7.2020 nb         1 D5I      -0.562000
     21 C21         -0.9290    -0.0300    -6.0720 ca         1 D5I       0.397700
     22 C22         -0.2790    -0.0290    -4.8530 ca         1 D5I      -0.179300
     23 H1           0.3490    -0.8850     2.4110 hc         1 D5I       0.023200
     24 H2           0.3490     0.8840     2.4110 hc         1 D5I       0.023200
     25 H3           1.0320     0.0000     4.6170 hc         1 D5I       0.027367
     26 H4           3.1570    -1.2500     4.8130 hc         1 D5I       0.017033
     27 H5           1.9920    -2.1340     3.8170 hc         1 D5I       0.017033
     28 H6           4.2330    -2.1350     2.7690 hc         1 D5I       0.027367
     29 H7           3.5490    -1.2500     0.5630 hc         1 D5I       0.023200
     30 H8           2.2220    -2.1340     1.3290 hc         1 D5I       0.023200
     31 H9           1.9940     2.1330     3.8170 hc         1 D5I       0.017033
     32 H10          3.1580     1.2480     4.8130 hc         1 D5I       0.017033
     33 H11          4.2340     2.1330     2.7700 hc         1 D5I       0.027367
     34 H12          5.1940    -0.0010     1.9700 hc         1 D5I       0.017033
     35 H13          5.0310    -0.0010     3.7320 hc         1 D5I       0.017033
     36 H14          3.5510     1.2480     0.5640 hc         1 D5I       0.023200
     37 H15          2.2240     2.1330     1.3290 hc         1 D5I       0.023200
     38 H16          2.8870     0.0190    -1.1660 hn         1 D5I       0.224500
     39 H17          0.1850    -0.0100    -2.3810 hn         1 D5I       0.221500
     40 H18          2.8820    -0.0290    -6.0790 ha         1 D5I       0.126000
     41 H19          1.5860    -0.0400    -8.1770 h4         1 D5I      -0.015400
     42 H20         -2.0120    -0.0320    -6.1000 h4         1 D5I      -0.015400
     43 H21         -0.8440    -0.0240    -3.9280 ha         1 D5I       0.126000
@<TRIPOS>BOND
     1     1     2 2   
     2     2     3 1   
     3     2    13 1   
     4     3     4 1   
     5     3     8 1   
     6     3    12 1   
     7     4     5 1   
     8     4    23 1   
     9     4    24 1   
    10     5     6 1   
    11     5     9 1   
    12     5    25 1   
    13     6     7 1   
    14     6    26 1   
    15     6    27 1   
    16     7     8 1   
    17     7    11 1   
    18     7    28 1   
    19     8    29 1   
    20     8    30 1   
    21     9    10 1   
    22     9    31 1   
    23     9    32 1   
    24    10    11 1   
    25    10    12 1   
    26    10    33 1   
    27    11    34 1   
    28    11    35 1   
    29    12    36 1   
    30    12    37 1   
    31    13    14 1   
    32    13    38 1   
    33    14    15 1   
    34    14    39 1   
    35    15    16 2   
    36    15    17 1   
    37    17    18 ar  
    38    17    22 ar  
    39    18    19 ar  
    40    18    40 1   
    41    19    20 ar  
    42    19    41 1   
    43    20    21 ar  
    44    21    22 ar  
    45    21    42 1   
    46    22    43 1   
@<TRIPOS>SUBSTRUCTURE
     1 D5I         1 TEMP              0 ****  ****    0 ROOT
