@<TRIPOS>MOLECULE
molecule
   43    46     1     0     0
SMALL
bcc


@<TRIPOS>ATOM
      1 O1           0.0000     0.0000     0.0000 o          1 D5I      -0.616100
      2 C2           1.2120     0.0000     0.0000 c          1 D5I       0.666100
      3 C3           1.9660     0.0000     1.3050 c3         1 D5I      -0.118000
      4 C4           0.9720    -0.0000     2.4680 c3         1 D5I      -0.058733
      5 C5           1.7360    -0.0000     3.7940 c3         1 D5I      -0.065033
      6 C12          2.6160    -1.2490     3.8750 c3         1 D5I      -0.070733
      7 C10          3.6110    -1.2500     2.7110 c3         1 D5I      -0.065033
      8 C11          2.8450    -1.2490     1.3860 c3         1 D5I      -0.058733
      9 C6           2.6170     1.2490     3.8740 c3         1 D5I      -0.070733
     10 C7           3.6110     1.2490     2.7120 c3         1 D5I      -0.065033
     11 C9           4.4900    -0.0010     2.7930 c3         1 D5I      -0.070733
     12 C8           2.8460     1.2490     1.3870 c3         1 D5I      -0.058733
     13 N13          1.8870    -0.0060    -1.1670 ns         1 D5I      -0.432500
     14 N14          1.1860    -0.0110    -2.3810 ns         1 D5I      -0.425500
     15 C15          1.8590    -0.0170    -3.5470 c          1 D5I       0.669700
     16 O16          3.0750    -0.0170    -3.5480 o          1 D5I      -0.612100
     17 C17          1.1190    -0.0230    -4.8310 ca         1 D5I      -0.104600
     18 C18          1.7990    -0.0290    -6.0520 ca         1 D5I      -0.214300
     19 C19          1.0680    -0.0350    -7.2250 ca         1 D5I       0.416200
     20 N20         -0.2500    -0.0350    -7.2020 nb         1 D5I      -0.674000
     21 C21         -0.9290    -0.0300    -6.0720 ca         1 D5I       0.416200
     22 C22         -0.2790    -0.0290    -4.8530 ca         1 D5I      -0.214300
     23 H1           0.3490    -0.8850     2.4110 hc         1 D5I       0.051033
     24 H2           0.3490     0.8840     2.4110 hc         1 D5I       0.051033
     25 H3           1.0320     0.0000     4.6170 hc         1 D5I       0.054033
     26 H4           3.1570    -1.2500     4.8130 hc         1 D5I       0.044033
     27 H5           1.9920    -2.1340     3.8170 hc         1 D5I       0.044033
     28 H6           4.2330    -2.1350     2.7690 hc         1 D5I       0.054033
     29 H7           3.5490    -1.2500     0.5630 hc         1 D5I       0.051033
     30 H8           2.2220    -2.1340     1.3290 hc         1 D5I       0.051033
     31 H9           1.9940     2.1330     3.8170 hc         1 D5I       0.044033
     32 H10          3.1580     1.2480     4.8130 hc         1 D5I       0.044033
     33 H11          4.2340     2.1330     2.7700 hc         1 D5I       0.054033
     34 H12          5.1940    -0.0010     1.9700 hc         1 D5I       0.044033
     35 H13          5.0310    -0.0010     3.7320 hc         1 D5I       0.044033
     36 H14          3.5510     1.2480     0.5640 hc         1 D5I       0.051033
     37 H15          2.2240     2.1330     1.3290 hc         1 D5I       0.051033
     38 H16          2.8870     0.0190    -1.1660 hn         1 D5I       0.365500
     39 H17          0.1850    -0.0100    -2.3810 hn         1 D5I       0.364500
     40 H18          2.8820    -0.0290    -6.0790 ha         1 D5I       0.152000
     41 H19          1.5860    -0.0400    -8.1770 h4         1 D5I       0.030100
     42 H20         -2.0120    -0.0320    -6.1000 h4         1 D5I       0.030100
     43 H21         -0.8440    -0.0240    -3.9280 ha         1 D5I       0.152000
@<TRIPOS>BOND
     1     1     2 2
     2     8     7 1
     3     8     3 1
     4     2     3 1
     5     2    13 1
     6    11     7 1
     7    11    10 1
     8     7     6 1
     9    12     3 1
    10    12    10 1
    11     3     4 1
    12    22    21 ar
    13    22    17 ar
    14    10     9 1
    15    13    14 1
    16    14    15 1
    17    21    20 ar
    18    15    17 1
    19    15    16 2
    20     6     5 1
    21    17    18 ar
    22     4     5 1
    23    20    19 ar
    24     9     5 1
    25    18    19 ar
    26     4    23 1
    27     4    24 1
    28     5    25 1
    29     6    26 1
    30     6    27 1
    31     7    28 1
    32     8    29 1
    33     8    30 1
    34     9    31 1
    35     9    32 1
    36    10    33 1
    37    11    34 1
    38    11    35 1
    39    12    36 1
    40    12    37 1
    41    13    38 1
    42    14    39 1
    43    18    40 1
    44    19    41 1
    45    21    42 1
    46    22    43 1
@<TRIPOS>SUBSTRUCTURE
     1 D5I         1 TEMP              0 ****  ****    0 ROOT
