@<TRIPOS>MOLECULE
molecule
   34    36     1     0     0
SMALL
bcc


@<TRIPOS>ATOM
      1 O5'          0.0000     0.0000     0.0000 os         1 D5M      -0.566200
      2 C5'          1.4170     0.0000     0.0000 c3         1 D5M       0.215400
      3 C4'          1.9040     0.0000     1.4430 c3         1 D5M       0.111100
      4 O4'          1.4330    -1.2090     2.0740 os         1 D5M      -0.380600
      5 C3'          3.4250    -0.0110     1.5500 c3         1 D5M       0.106100
      6 O3'          3.8230     0.6170     2.7660 oh         1 D5M      -0.614800
      7 C2'          3.7540    -1.4840     1.6430 c3         1 D5M      -0.138400
      8 C1'          2.5700    -2.0120     2.4390 c3         1 D5M       0.253800
      9 N9           2.2760    -3.4230     2.2140 na         1 D5M      -0.254000
     10 C8           1.4840    -3.9360     1.2190 cc         1 D5M       0.487700
     11 N7           1.4060    -5.2500     1.2710 nd         1 D5M      -0.584100
     12 C5           2.1800    -5.6060     2.3470 ca         1 D5M      -0.140200
     13 C6           2.4910    -6.8390     2.9110 ca         1 D5M       0.726200
     14 N6           1.9770    -8.0280     2.3660 nv         1 D5M      -1.077500
     15 N1           3.3010    -6.8800     3.9970 nb         1 D5M      -0.762000
     16 C2           3.7650    -5.7010     4.4770 ca         1 D5M       0.613900
     17 N3           3.5350    -4.4510     4.0200 nb         1 D5M      -0.685000
     18 C4           2.7290    -4.4840     2.9480 ca         1 D5M       0.405800
     19 P           -0.7730     0.0010    -1.4230 p5         1 D5M       1.160900
     20 O1P         -2.2700     0.0010    -1.3310 o          1 D5M      -0.905833
     21 O3P         -0.1280    -1.2570    -2.2090 o          1 D5M      -0.905833
     22 O2P         -0.1350     1.2800    -2.1800 o          1 D5M      -0.905833
     23 H5'1         1.7810    -0.8850    -0.5070 h1         1 D5M       0.034700
     24 H5'2         1.7810     0.8850    -0.5070 h1         1 D5M       0.034700
     25 H4'          1.5090     0.8610     1.9670 h1         1 D5M       0.078700
     26 H1           3.8890     0.4460     0.6840 h1         1 D5M       0.063700
     27 H3'          4.4460     1.2990     2.5780 ho         1 D5M       0.387000
     28 H2'1         3.7890    -1.9340     0.6590 hc         1 D5M       0.066200
     29 H2'2         4.6810    -1.6390     2.1820 hc         1 D5M       0.066200
     30 H1'          2.7710    -1.8620     3.4930 h2         1 D5M       0.073700
     31 H8           0.9810    -3.3310     0.4750 h5         1 D5M       0.143800
     32 HN61         1.1090    -8.3970     2.7010 hn         1 D5M       0.432800
     33 HN62         2.4930    -8.5210     1.6650 hn         1 D5M       0.432800
     34 H2           4.4140    -5.7890     5.3400 h5         1 D5M       0.027100
@<TRIPOS>BOND
     1     1     2 1
     2     1    19 1
     3     2     3 1
     4     2    23 1
     5     2    24 1
     6     3     4 1
     7     3     5 1
     8     3    25 1
     9     4     8 1
    10     5     6 1
    11     5     7 1
    12     5    26 1
    13     6    27 1
    14     7     8 1
    15     7    28 1
    16     7    29 1
    17     8     9 1
    18     8    30 1
    19     9    10 1
    20     9    18 1
    21    10    11 2
    22    10    31 1
    23    11    12 1
    24    12    13 ar
    25    12    18 ar
    26    13    14 1
    27    13    15 ar
    28    14    32 1
    29    14    33 1
    30    15    16 ar
    31    16    17 ar
    32    16    34 1
    33    17    18 ar
    34    19    20 1
    35    19    21 1
    36    19    22 1
@<TRIPOS>SUBSTRUCTURE
     1 D5M         1 TEMP              0 ****  ****    0 ROOT
