@<TRIPOS>MOLECULE
D5N
   60    63     1     0     0
SMALL
bcc


@<TRIPOS>ATOM
      1 C10          0.0000     0.0000     0.0000 ca         1 D5N       0.020000
      2 C11          1.3940     0.0000     0.0000 ca         1 D5N      -0.145000
      3 C01          3.5070    -0.0000     3.4920 c3         1 D5N       0.586700
      4 O01          2.0800    -0.0010     3.5720 os         1 D5N      -0.298900
      5 C02          1.3960     0.0000     2.3970 ca         1 D5N       0.097100
      6 C03          0.0020    -0.0010     2.4050 ca         1 D5N       0.145100
      7 O02         -0.6720    -0.0010     3.5860 os         1 D5N      -0.284900
      8 C04         -2.0930    -0.1280     3.5210 c3         1 D5N       0.161100
      9 C05         -2.7420     1.2600     3.3420 c3         1 D5N      -0.044900
     10 C06         -4.0350     1.1870     4.1910 c3         1 D5N      -0.021900
     11 C07         -3.5880     0.3650     5.4250 c3         1 D5N      -0.021900
     12 C08         -2.6310    -0.6980     4.8460 c3         1 D5N      -0.044900
     13 C09         -0.6960    -0.0010     1.2110 ca         1 D5N      -0.173000
     14 C12          2.0850     0.0000     1.1940 ca         1 D5N      -0.151000
     15 C13         -0.7420     0.0070    -1.2800 cc         1 D5N      -0.183300
     16 N01         -0.2750     0.4460    -2.4830 na         1 D5N       0.510400
     17 N02         -1.2950     0.2740    -3.4260 nc         1 D5N      -0.635800
     18 C14          1.0570     1.0010    -2.7410 c3         1 D5N      -0.077700
     19 C15          1.9700    -0.0990    -3.2880 c3         1 D5N       0.159100
     20 O03          1.4640    -0.5550    -4.5440 oh         1 D5N      -0.554800
     21 C16          3.3810     0.4580    -3.4790 c3         1 D5N       0.114800
     22 N03          4.2830    -0.6240    -3.8930 n3         1 D5N      -0.519600
     23 C17          5.4990    -0.0860    -4.5210 c3         1 D5N       0.107300
     24 C18          6.3810    -1.2470    -4.9890 c3         1 D5N       0.214900
     25 O04          6.6770    -2.0950    -3.8760 os         1 D5N      -0.411600
     26 C19          5.5160    -2.6370    -3.2420 c3         1 D5N       0.214900
     27 C20          4.6250    -1.4900    -2.7550 c3         1 D5N       0.107300
     28 C21         -2.3350    -0.2470    -2.8240 cd         1 D5N       0.392200
     29 C22         -2.0210    -0.4320    -1.4780 cd         1 D5N      -0.321300
     30 F01          3.9350    -1.1420     2.8060 f          1 D5N      -0.228300
     31 F02          3.9350     1.1430     2.8070 f          1 D5N      -0.228300
     32 H12          1.9360     0.0000    -0.9380 ha         1 D5N       0.126000
     33 H01          3.9250    -0.0010     4.4910 h3         1 D5N       0.061700
     34 H02         -2.3750    -0.7760     2.7000 h1         1 D5N       0.023700
     35 H03         -2.0860     2.0350     3.7190 hc         1 D5N       0.027450
     36 H04         -2.9840     1.4320     2.3000 hc         1 D5N       0.027450
     37 H06         -4.8180     0.6700     3.6510 hc         1 D5N       0.017950
     38 H05         -4.3530     2.1790     4.4880 hc         1 D5N       0.017950
     39 H07         -3.0660     0.9980     6.1320 hc         1 D5N       0.017950
     40 H08         -4.4430    -0.1110     5.8910 hc         1 D5N       0.017950
     41 H10         -1.8120    -0.8710     5.5340 hc         1 D5N       0.027450
     42 H09         -3.1700    -1.6190     4.6610 hc         1 D5N       0.027450
     43 H11         -1.7790    -0.0010     1.2150 ha         1 D5N       0.141000
     44 H13          3.1680     0.0000     1.1920 ha         1 D5N       0.134000
     45 H27          0.9810     1.8010    -3.4680 h1         1 D5N       0.050200
     46 H26          1.4720     1.3890    -1.8190 h1         1 D5N       0.050200
     47 H14          1.9990    -0.9250    -2.5890 h1         1 D5N       0.055700
     48 H15          1.4540     0.1600    -5.1580 ho         1 D5N       0.394000
     49 H16          3.3660     1.2270    -4.2410 h1         1 D5N       0.015700
     50 H17          3.7310     0.8830    -2.5450 h1         1 D5N       0.015700
     51 H19          6.0430     0.5120    -3.8000 h1         1 D5N       0.016950
     52 H18          5.2250     0.5240    -5.3720 h1         1 D5N       0.016950
     53 H21          7.3050    -0.8560    -5.3990 h1         1 D5N       0.014950
     54 H20          5.8560    -1.8170    -5.7460 h1         1 D5N       0.014950
     55 H22          4.9670    -3.2430    -3.9520 h1         1 D5N       0.014950
     56 H23          5.8170    -3.2430    -2.3960 h1         1 D5N       0.014950
     57 H25          3.7180    -1.8960    -2.3250 h1         1 D5N       0.016950
     58 H24          5.1580    -0.9120    -2.0090 h1         1 D5N       0.016950
     59 H28         -3.2780    -0.4970    -3.2940 h4         1 D5N       0.003100
     60 H29         -2.6780    -0.8450    -0.7210 ha         1 D5N       0.133000
@<TRIPOS>BOND
     1     1     2 ar  
     2     1    13 ar  
     3     1    15 1   
     4     2    14 ar  
     5     2    32 1   
     6     3     4 1   
     7     3    30 1   
     8     3    31 1   
     9     3    33 1   
    10     4     5 1   
    11     5     6 ar  
    12     5    14 ar  
    13     6     7 1   
    14     6    13 ar  
    15     7     8 1   
    16     8     9 1   
    17     8    12 1   
    18     8    34 1   
    19     9    10 1   
    20     9    35 1   
    21     9    36 1   
    22    10    11 1   
    23    10    37 1   
    24    10    38 1   
    25    11    12 1   
    26    11    39 1   
    27    11    40 1   
    28    12    41 1   
    29    12    42 1   
    30    13    43 1   
    31    14    44 1   
    32    15    16 1   
    33    15    29 2   
    34    16    17 1   
    35    16    18 1   
    36    17    28 2   
    37    18    19 1   
    38    18    45 1   
    39    18    46 1   
    40    19    20 1   
    41    19    21 1   
    42    19    47 1   
    43    20    48 1   
    44    21    22 1   
    45    21    49 1   
    46    21    50 1   
    47    22    23 1   
    48    22    27 1   
    49    23    24 1   
    50    23    51 1   
    51    23    52 1   
    52    24    25 1   
    53    24    53 1   
    54    24    54 1   
    55    25    26 1   
    56    26    27 1   
    57    26    55 1   
    58    26    56 1   
    59    27    57 1   
    60    27    58 1   
    61    28    29 1   
    62    28    59 1   
    63    29    60 1   
@<TRIPOS>SUBSTRUCTURE
     1 D5N         1 TEMP              0 ****  ****    0 ROOT
