@<TRIPOS>MOLECULE
D5Q
   65    69     1     0     0
SMALL
bcc


@<TRIPOS>ATOM
      1 C01          0.0000     0.0000     0.0000 c3         1 D5Q       0.244700
      2 O02          1.4290     0.0000     0.0000 os         1 D5Q      -0.308900
      3 C03          2.0470     0.0000     1.2110 ca         1 D5Q       0.114100
      4 C04          1.2900    -0.0010     2.3740 ca         1 D5Q      -0.173000
      5 C05          1.9110    -0.0020     3.6090 ca         1 D5Q      -0.166000
      6 C06          3.2940    -0.0010     3.6910 ca         1 D5Q       0.116100
      7 O07          3.9040    -0.0010     4.9060 os         1 D5Q      -0.301900
      8 C08          3.0570    -0.0020     6.0580 c3         1 D5Q       0.239700
      9 C09          4.0600    -0.0010     2.5230 ca         1 D5Q       0.014000
     10 C10          3.4300    -0.0070     1.2820 ca         1 D5Q      -0.104000
     11 C11          5.5430    -0.0010     2.6050 cc         1 D5Q      -0.108000
     12 C12          6.3900    -0.8430     1.9420 cd         1 D5Q      -0.300300
     13 N13          7.6590    -0.5290     2.2770 na         1 D5Q       0.522900
     14 C14          8.8620    -1.2000     1.7780 c3         1 D5Q      -0.034400
     15 C15          7.6390     0.5260     3.1620 cd         1 D5Q      -0.410900
     16 C16          6.3350     0.8730     3.3740 cc         1 D5Q      -0.101000
     17 C17          8.8120     1.1660     3.7650 c          1 D5Q       0.640700
     18 O18          9.9320     0.8370     3.4190 o          1 D5Q      -0.678100
     19 N19          8.6520     2.1200     4.7040 ns         1 D5Q      -0.082400
     20 C20          9.7550     2.8290     5.1740 ca         1 D5Q       0.358200
     21 C21         11.0240     2.2850     5.0440 ca         1 D5Q      -0.270300
     22 C22         12.1230     3.0100     5.5220 ca         1 D5Q       0.056000
     23 C23         11.8850     4.2600     6.1150 ca         1 D5Q      -0.236300
     24 C24         10.5920     4.7260     6.2030 ca         1 D5Q       0.428200
     25 N25          9.5800     4.0160     5.7360 nb         1 D5Q      -0.617000
     26 C26         13.4910     2.4740     5.4070 cc         1 D5Q      -0.363600
     27 C27         14.6170     3.1590     4.9930 cd         1 D5Q       0.386800
     28 N28         15.6550     2.3030     5.0340 nd         1 D5Q      -0.615000
     29 C29         15.2420     1.1280     5.4490 cc         1 D5Q       0.320800
     30 N30         13.9050     1.1860     5.6990 na         1 D5Q       0.313100
     31 S31         16.2580    -0.2960     5.6560 ss         1 D5Q      -0.405400
     32 C32         17.8580     0.3830     5.1520 c3         1 D5Q       0.140000
     33 C33         14.6720     4.5800     4.5770 ca         1 D5Q      -0.117500
     34 C34         15.7960     5.3510     4.8700 ca         1 D5Q      -0.065000
     35 C35         15.8420     6.6740     4.4800 ca         1 D5Q      -0.137500
     36 C36         14.7750     7.2360     3.7990 ca         1 D5Q       0.101900
     37 F37         14.8250     8.5320     3.4200 f          1 D5Q      -0.130900
     38 C38         13.6560     6.4730     3.5050 ca         1 D5Q      -0.137500
     39 C39         13.6020     5.1480     3.8850 ca         1 D5Q      -0.065000
     40 H012        -0.3610     0.0000    -1.0210 h1         1 D5Q      -0.003633
     41 H011        -0.3610    -0.8850     0.5100 h1         1 D5Q      -0.003633
     42 H013        -0.3610     0.8840     0.5110 h1         1 D5Q      -0.003633
     43 H041         0.2080    -0.0020     2.3150 ha         1 D5Q       0.118000
     44 H051         1.3160    -0.0020     4.5140 ha         1 D5Q       0.118000
     45 H081         2.4320    -0.8870     6.0450 h1         1 D5Q      -0.003633
     46 H083         2.4310     0.8820     6.0460 h1         1 D5Q      -0.003633
     47 H082         3.6650    -0.0030     6.9540 h1         1 D5Q      -0.003633
     48 H101         4.0200    -0.0070     0.3740 ha         1 D5Q       0.121000
     49 H121         6.0920    -1.6340     1.2640 h4         1 D5Q       0.152000
     50 H143         9.4310    -1.5900     2.6130 h1         1 D5Q       0.032367
     51 H141         9.4680    -0.4920     1.2270 h1         1 D5Q       0.032367
     52 H142         8.5750    -2.0160     1.1250 h1         1 D5Q       0.032367
     53 H161         5.9770     1.6670     4.0190 ha         1 D5Q       0.131000
     54 H191         7.7410     2.3110     5.0720 hn         1 D5Q       0.183500
     55 H211        11.1630     1.3160     4.5800 ha         1 D5Q       0.188000
     56 H231        12.7090     4.8500     6.4990 ha         1 D5Q       0.130000
     57 H241        10.4020     5.6910     6.6560 h4         1 D5Q      -0.016900
     58 H301        13.3290     0.4360     6.0270 hn         1 D5Q       0.131700
     59 H341        16.6310     4.9130     5.4030 ha         1 D5Q       0.121000
     60 H351        16.7150     7.2750     4.7070 ha         1 D5Q       0.118500
     61 H381        12.8250     6.9160     2.9700 ha         1 D5Q       0.118500
     62 H391        12.7270     4.5530     3.6550 ha         1 D5Q       0.121000
     63 H321        18.1220     1.2080     5.8030 h1         1 D5Q       0.040700
     64 H322        18.6160    -0.3880     5.2220 h1         1 D5Q       0.040700
     65 H323        17.7950     0.7350     4.1300 h1         1 D5Q       0.040700
@<TRIPOS>BOND
     1     1     2 1   
     2     1    40 1   
     3     1    41 1   
     4     1    42 1   
     5     2     3 1   
     6     3     4 ar  
     7     3    10 ar  
     8     4     5 ar  
     9     4    43 1   
    10     5     6 ar  
    11     5    44 1   
    12     6     7 1   
    13     6     9 ar  
    14     7     8 1   
    15     8    45 1   
    16     8    46 1   
    17     8    47 1   
    18     9    10 ar  
    19     9    11 1   
    20    10    48 1   
    21    11    12 2   
    22    11    16 1   
    23    12    13 1   
    24    12    49 1   
    25    13    14 1   
    26    13    15 1   
    27    14    50 1   
    28    14    51 1   
    29    14    52 1   
    30    15    16 2   
    31    15    17 1   
    32    16    53 1   
    33    17    18 2   
    34    17    19 1   
    35    19    20 1   
    36    19    54 1   
    37    20    21 ar  
    38    20    25 ar  
    39    21    22 ar  
    40    21    55 1   
    41    22    23 ar  
    42    22    26 1   
    43    23    24 ar  
    44    23    56 1   
    45    24    25 ar  
    46    24    57 1   
    47    26    27 2   
    48    26    30 1   
    49    27    28 1   
    50    27    33 1   
    51    28    29 2   
    52    29    30 1   
    53    29    31 1   
    54    30    58 1   
    55    31    32 1   
    56    32    63 1   
    57    32    64 1   
    58    32    65 1   
    59    33    34 ar  
    60    33    39 ar  
    61    34    35 ar  
    62    34    59 1   
    63    35    36 ar  
    64    35    60 1   
    65    36    37 1   
    66    36    38 ar  
    67    38    39 ar  
    68    38    61 1   
    69    39    62 1   
@<TRIPOS>SUBSTRUCTURE
     1 D5Q         1 TEMP              0 ****  ****    0 ROOT
