@<TRIPOS>MOLECULE
molecule
   65    69     1     0     0
SMALL
bcc


@<TRIPOS>ATOM
      1 C01          0.0000     0.0000     0.0000 c3         1 D5Q       0.130700
      2 O02          1.4290     0.0000     0.0000 os         1 D5Q      -0.330900
      3 C03          2.0470     0.0000     1.2110 ca         1 D5Q       0.107100
      4 C04          1.2900    -0.0010     2.3740 ca         1 D5Q      -0.185000
      5 C05          1.9110    -0.0020     3.6090 ca         1 D5Q      -0.182000
      6 C06          3.2940    -0.0010     3.6910 ca         1 D5Q       0.112100
      7 O07          3.9040    -0.0010     4.9060 os         1 D5Q      -0.323900
      8 C08          3.0570    -0.0020     6.0580 c3         1 D5Q       0.126700
      9 C09          4.0600    -0.0010     2.5230 ca         1 D5Q       0.005000
     10 C10          3.4300    -0.0070     1.2820 ca         1 D5Q      -0.120000
     11 C11          5.5430    -0.0010     2.6050 cc         1 D5Q      -0.122000
     12 C12          6.3900    -0.8430     1.9420 cd         1 D5Q      -0.112300
     13 N13          7.6590    -0.5290     2.2770 na         1 D5Q      -0.006100
     14 C14          8.8620    -1.2000     1.7780 c3         1 D5Q       0.034600
     15 C15          7.6390     0.5260     3.1620 cd         1 D5Q      -0.206900
     16 C16          6.3350     0.8730     3.3740 cc         1 D5Q      -0.118000
     17 C17          8.8120     1.1660     3.7650 c          1 D5Q       0.718700
     18 O18          9.9320     0.8370     3.4190 o          1 D5Q      -0.624100
     19 N19          8.6520     2.1200     4.7040 ns         1 D5Q      -0.534400
     20 C20          9.7550     2.8290     5.1740 ca         1 D5Q       0.548200
     21 C21         11.0240     2.2850     5.0440 ca         1 D5Q      -0.266300
     22 C22         12.1230     3.0100     5.5220 ca         1 D5Q       0.031000
     23 C23         11.8850     4.2600     6.1150 ca         1 D5Q      -0.259300
     24 C24         10.5920     4.7260     6.2030 ca         1 D5Q       0.445200
     25 N25          9.5800     4.0160     5.7360 nb         1 D5Q      -0.735000
     26 C26         13.4910     2.4740     5.4070 cc         1 D5Q      -0.169600
     27 C27         14.6170     3.1590     4.9930 cd         1 D5Q       0.402800
     28 N28         15.6550     2.3030     5.0340 nd         1 D5Q      -0.700000
     29 C29         15.2420     1.1280     5.4490 cc         1 D5Q       0.524800
     30 N30         13.9050     1.1860     5.6990 na         1 D5Q      -0.266900
     31 S31         16.2580    -0.2960     5.6560 ss         1 D5Q      -0.302400
     32 C32         17.8580     0.3830     5.1520 c3         1 D5Q      -0.001000
     33 C33         14.6720     4.5800     4.5770 ca         1 D5Q      -0.123500
     34 C34         15.7960     5.3510     4.8700 ca         1 D5Q      -0.084000
     35 C35         15.8420     6.6740     4.4800 ca         1 D5Q      -0.173500
     36 C36         14.7750     7.2360     3.7990 ca         1 D5Q       0.132900
     37 F37         14.8250     8.5320     3.4200 f          1 D5Q      -0.142900
     38 C38         13.6560     6.4730     3.5050 ca         1 D5Q      -0.173500
     39 C39         13.6020     5.1480     3.8850 ca         1 D5Q      -0.084000
     40 H012        -0.3610     0.0000    -1.0210 h1         1 D5Q       0.040033
     41 H011        -0.3610    -0.8850     0.5100 h1         1 D5Q       0.040033
     42 H013        -0.3610     0.8840     0.5110 h1         1 D5Q       0.040033
     43 H041         0.2080    -0.0020     2.3150 ha         1 D5Q       0.135000
     44 H051         1.3160    -0.0020     4.5140 ha         1 D5Q       0.136000
     45 H081         2.4320    -0.8870     6.0450 h1         1 D5Q       0.039700
     46 H083         2.4310     0.8820     6.0460 h1         1 D5Q       0.039700
     47 H082         3.6650    -0.0030     6.9540 h1         1 D5Q       0.039700
     48 H101         4.0200    -0.0070     0.3740 ha         1 D5Q       0.151000
     49 H121         6.0920    -1.6340     1.2640 h4         1 D5Q       0.176000
     50 H143         9.4310    -1.5900     2.6130 h1         1 D5Q       0.060700
     51 H141         9.4680    -0.4920     1.2270 h1         1 D5Q       0.060700
     52 H142         8.5750    -2.0160     1.1250 h1         1 D5Q       0.060700
     53 H161         5.9770     1.6670     4.0190 ha         1 D5Q       0.157000
     54 H191         7.7410     2.3110     5.0720 hn         1 D5Q       0.344500
     55 H211        11.1630     1.3160     4.5800 ha         1 D5Q       0.198000
     56 H231        12.7090     4.8500     6.4990 ha         1 D5Q       0.153000
     57 H241        10.4020     5.6910     6.6560 h4         1 D5Q       0.029100
     58 H301        13.3290     0.4360     6.0270 hn         1 D5Q       0.314700
     59 H341        16.6310     4.9130     5.4030 ha         1 D5Q       0.150000
     60 H351        16.7150     7.2750     4.7070 ha         1 D5Q       0.145500
     61 H381        12.8250     6.9160     2.9700 ha         1 D5Q       0.145500
     62 H391        12.7270     4.5530     3.6550 ha         1 D5Q       0.150000
     63 H321        18.1220     1.2080     5.8030 h1         1 D5Q       0.073700
     64 H322        18.6160    -0.3880     5.2220 h1         1 D5Q       0.073700
     65 H323        17.7950     0.7350     4.1300 h1         1 D5Q       0.073700
@<TRIPOS>BOND
     1     1     2 1
     2     2     3 1
     3     3     4 ar
     4     3    10 ar
     5     4     5 ar
     6     5     6 ar
     7     6     7 1
     8     6     9 ar
     9     7     8 1
    10     9    10 ar
    11     9    11 1
    12    11    12 2
    13    11    16 1
    14    12    13 1
    15    13    14 1
    16    13    15 1
    17    15    16 2
    18    15    17 1
    19    17    18 2
    20    17    19 1
    21    19    20 1
    22    20    21 ar
    23    20    25 ar
    24    21    22 ar
    25    22    23 ar
    26    22    26 1
    27    23    24 ar
    28    24    25 ar
    29    26    27 2
    30    26    30 1
    31    27    28 1
    32    27    33 1
    33    28    29 2
    34    29    30 1
    35    29    31 1
    36    31    32 1
    37    33    34 ar
    38    33    39 ar
    39    34    35 ar
    40    35    36 ar
    41    36    37 1
    42    36    38 ar
    43    38    39 ar
    44     1    40 1
    45     1    41 1
    46     1    42 1
    47     4    43 1
    48     5    44 1
    49     8    45 1
    50     8    46 1
    51     8    47 1
    52    10    48 1
    53    12    49 1
    54    14    50 1
    55    14    51 1
    56    14    52 1
    57    16    53 1
    58    19    54 1
    59    21    55 1
    60    23    56 1
    61    24    57 1
    62    30    58 1
    63    32    65 1
    64    32    64 1
    65    32    63 1
    66    34    59 1
    67    35    60 1
    68    38    61 1
    69    39    62 1
@<TRIPOS>SUBSTRUCTURE
     1 D5Q         1 TEMP              0 ****  ****    0 ROOT
