@<TRIPOS>MOLECULE
molecule
   60    61     1     0     0
SMALL
bcc


@<TRIPOS>ATOM
      1 C4           0.0000     0.0000     0.0000 ca         1 D5W       0.430600
      2 C5           1.3880     0.0000     0.0000 ca         1 D5W      -0.364600
      3 C6           2.0520     0.0000     1.2180 ca         1 D5W       0.453200
      4 N1           1.3480     0.0000     2.3360 nb         1 D5W      -0.681000
      5 N3          -0.6440     0.0050     1.1550 nb         1 D5W      -0.715000
      6 CAJ         -5.6800    -1.3490    -6.1840 ca         1 D5W      -0.100000
      7 CAK         -6.5640    -0.2910    -6.0570 ca         1 D5W       0.031900
      8 ClA         -6.2240     1.2220    -6.8400 cl         1 D5W      -0.096400
      9 CAL         -7.7160    -0.4380    -5.3070 ca         1 D5W      -0.112000
     10 CAM         -7.9860    -1.6430    -4.6840 ca         1 D5W       0.031900
     11 ClB         -9.4320    -1.8290    -3.7420 cl         1 D5W      -0.096400
     12 CAN         -7.1030    -2.7010    -4.8110 ca         1 D5W      -0.100000
     13 CAI         -5.9500    -2.5520    -5.5610 ca         1 D5W      -0.076300
     14 CAH         -4.9900    -3.7040    -5.7010 c3         1 D5W       0.156800
     15 NAU         -5.7430    -4.9550    -5.8610 n3         1 D5W      -0.707600
     16 CAW         -6.6600    -4.8730    -7.0060 c3         1 D5W       0.146600
     17 CAV         -4.8360    -6.1030    -5.9950 c3         1 D5W       0.146600
     18 CAG         -4.1290    -3.7920    -4.4660 c          1 D5W       0.666100
     19 OAQ         -4.4220    -4.5620    -3.5760 o          1 D5W      -0.590100
     20 N           -3.0340    -3.0150    -4.3510 ns         1 D5W      -0.562900
     21 CA          -2.2570    -3.0220    -3.1090 c3         1 D5W       0.047700
     22 CB          -1.0350    -3.9270    -3.2770 c3         1 D5W      -0.084700
     23 CG2         -1.4910    -5.3830    -3.3930 c3         1 D5W      -0.094100
     24 CG1         -0.2760    -3.5280    -4.5440 c3         1 D5W      -0.081400
     25 CD1          0.3230    -2.1320    -4.3610 c3         1 D5W      -0.116100
     26 C           -1.8050    -1.6200    -2.7910 c          1 D5W       0.660100
     27 O           -2.0620    -0.7130    -3.5530 o          1 D5W      -0.612100
     28 NAF         -1.1140    -1.3750    -1.6590 ns         1 D5W      -0.582900
     29 CAX         -0.7630     0.0000    -1.2990 c3         1 D5W       0.068700
     30 C2           0.0220    -0.0000     2.3020 ca         1 D5W       0.642700
     31 CBE         -0.7340     0.0000     3.5750 ce         1 D5W       0.383200
     32 NBF         -0.1020     0.0000     4.7010 n2         1 D5W      -0.740100
     33 H1           1.9410    -0.0020    -0.9310 ha         1 D5W       0.151000
     34 H2           3.1350     0.0000     1.2520 h4         1 D5W       0.037100
     35 H3          -4.7770    -1.2330    -6.7710 ha         1 D5W       0.161500
     36 H4          -8.4080     0.3900    -5.2080 ha         1 D5W       0.157000
     37 H5          -7.3140    -3.6440    -4.3230 ha         1 D5W       0.161500
     38 H6          -4.3610    -3.5470    -6.5690 h1         1 D5W       0.039700
     39 H8          -7.5600    -4.3450    -6.7110 h1         1 D5W       0.038533
     40 H9          -6.1790    -4.3400    -7.8170 h1         1 D5W       0.038533
     41 H10         -6.9190    -5.8720    -7.3330 h1         1 D5W       0.038533
     42 H11         -4.5690    -6.4690    -5.0110 h1         1 D5W       0.038533
     43 H12         -3.9410    -5.7970    -6.5220 h1         1 D5W       0.038533
     44 H13         -5.3310    -6.8910    -6.5510 h1         1 D5W       0.038533
     45 H14         -2.7750    -2.4030    -5.0990 hn         1 D5W       0.332500
     46 H15         -2.8740    -3.3940    -2.3000 h1         1 D5W       0.106700
     47 H16         -0.3850    -3.8200    -2.4170 hc         1 D5W       0.049700
     48 H17         -0.7330    -6.0330    -2.9730 hc         1 D5W       0.045367
     49 H18         -2.4200    -5.5150    -2.8520 hc         1 D5W       0.045367
     50 H19         -1.6420    -5.6320    -4.4360 hc         1 D5W       0.045367
     51 H20         -0.9570    -3.5200    -5.3860 hc         1 D5W       0.046200
     52 H21          0.5190    -4.2400    -4.7280 hc         1 D5W       0.046200
     53 H22         -0.3300    -1.3970    -4.8140 hc         1 D5W       0.042033
     54 H23          0.4280    -1.9200    -3.3030 hc         1 D5W       0.042033
     55 H24          1.2960    -2.0930    -4.8350 hc         1 D5W       0.042033
     56 H25         -0.8010    -2.1370    -1.0900 hn         1 D5W       0.322500
     57 H26         -1.6670     0.5860    -1.1860 h1         1 D5W       0.073200
     58 H27         -0.1480     0.4320    -2.0790 h1         1 D5W       0.073200
     59 H28         -1.8170     0.0000     3.5610 h4         1 D5W      -0.010200
     60 H29         -0.6130     0.0010     5.5610 hn         1 D5W       0.405400
@<TRIPOS>BOND
     1    32    31 2
     2     4     3 ar
     3     4    30 ar
     4    31    30 1
     5     3     2 ar
     6    30     5 ar
     7     2     1 ar
     8     5     1 ar
     9     1    29 1
    10    29    28 1
    11    28    26 1
    12    27    26 2
    13    24    25 1
    14    24    22 1
    15    23    22 1
    16    26    21 1
    17    22    21 1
    18    21    20 1
    19    20    18 1
    20    18    19 2
    21    18    14 1
    22    16    15 1
    23    15    14 1
    24    15    17 1
    25     8     7 1
    26     6     7 ar
    27     6    13 ar
    28    14    13 1
    29     7     9 ar
    30    13    12 ar
    31     9    10 ar
    32    12    10 ar
    33    10    11 1
    34     2    33 1
    35     3    34 1
    36     6    35 1
    37     9    36 1
    38    12    37 1
    39    14    38 1
    40    16    39 1
    41    16    40 1
    42    16    41 1
    43    17    42 1
    44    17    43 1
    45    17    44 1
    46    20    45 1
    47    21    46 1
    48    22    47 1
    49    23    48 1
    50    23    49 1
    51    23    50 1
    52    24    51 1
    53    24    52 1
    54    25    53 1
    55    25    54 1
    56    25    55 1
    57    28    56 1
    58    29    57 1
    59    29    58 1
    60    31    59 1
    61    32    60 1
@<TRIPOS>SUBSTRUCTURE
     1 D5W         1 TEMP              0 ****  ****    0 ROOT
