@<TRIPOS>MOLECULE
D5W
   60    61     1     0     0
SMALL
bcc


@<TRIPOS>ATOM
      1 C4           0.0000     0.0000     0.0000 ca         1 D5W       0.376600
      2 C5           1.3880     0.0000     0.0000 ca         1 D5W      -0.324600
      3 C6           2.0520     0.0000     1.2180 ca         1 D5W       0.446200
      4 N1           1.3480     0.0000     2.3360 nb         1 D5W      -0.613000
      5 N3          -0.6440     0.0050     1.1550 nb         1 D5W      -0.577000
      6 CAJ         -5.6800    -1.3490    -6.1840 ca         1 D5W      -0.081000
      7 CAK         -6.5640    -0.2910    -6.0570 ca         1 D5W      -0.029100
      8 ClA         -6.2240     1.2220    -6.8400 cl         1 D5W      -0.016900
      9 CAL         -7.7160    -0.4380    -5.3070 ca         1 D5W      -0.094000
     10 CAM         -7.9860    -1.6430    -4.6840 ca         1 D5W      -0.029100
     11 ClB         -9.4320    -1.8290    -3.7420 cl         1 D5W      -0.016900
     12 CAN         -7.1030    -2.7010    -4.8110 ca         1 D5W      -0.081000
     13 CAI         -5.9500    -2.5520    -5.5610 ca         1 D5W      -0.083300
     14 CAH         -4.9900    -3.7040    -5.7010 c3         1 D5W       0.125800
     15 NAU         -5.7430    -4.9550    -5.8610 n3         1 D5W      -0.511600
     16 CAW         -6.6600    -4.8730    -7.0060 c3         1 D5W       0.167600
     17 CAV         -4.8360    -6.1030    -5.9950 c3         1 D5W       0.167600
     18 CAG         -4.1290    -3.7920    -4.4660 c          1 D5W       0.573100
     19 OAQ         -4.4220    -4.5620    -3.5760 o          1 D5W      -0.632100
     20 N           -3.0340    -3.0150    -4.3510 ns         1 D5W      -0.166900
     21 CA          -2.2570    -3.0220    -3.1090 c3         1 D5W      -0.057300
     22 CB          -1.0350    -3.9270    -3.2770 c3         1 D5W      -0.061700
     23 CG2         -1.4910    -5.3830    -3.3930 c3         1 D5W      -0.017100
     24 CG1         -0.2760    -3.5280    -4.5440 c3         1 D5W      -0.031400
     25 CD1          0.3230    -2.1320    -4.3610 c3         1 D5W      -0.047100
     26 C           -1.8050    -1.6200    -2.7910 c          1 D5W       0.578100
     27 O           -2.0620    -0.7130    -3.5530 o          1 D5W      -0.653100
     28 NAF         -1.1140    -1.3750    -1.6590 ns         1 D5W      -0.186900
     29 CAX         -0.7630     0.0000    -1.2990 c3         1 D5W       0.005700
     30 C2           0.0220    -0.0000     2.3020 ca         1 D5W       0.506700
     31 CBE         -0.7340     0.0000     3.5750 ce         1 D5W       0.333200
     32 NBF         -0.1020     0.0000     4.7010 n2         1 D5W      -0.597100
     33 H1           1.9410    -0.0020    -0.9310 ha         1 D5W       0.130000
     34 H2           3.1350     0.0000     1.2520 h4         1 D5W      -0.008900
     35 H3          -4.7770    -1.2330    -6.7710 ha         1 D5W       0.132000
     36 H4          -8.4080     0.3900    -5.2080 ha         1 D5W       0.125000
     37 H5          -7.3140    -3.6440    -4.3230 ha         1 D5W       0.132000
     38 H6          -4.3610    -3.5470    -6.5690 h1         1 D5W       0.018700
     39 H8          -7.5860    -4.4030    -6.6940 h1         1 D5W       0.007533
     40 H9          -6.2040    -4.2840    -7.7930 h1         1 D5W       0.007533
     41 H10         -6.8680    -5.8700    -7.3750 h1         1 D5W       0.007533
     42 H11         -5.3270    -6.8870    -6.5600 h1         1 D5W       0.007533
     43 H12         -3.9360    -5.7940    -6.5120 h1         1 D5W       0.007533
     44 H13         -4.5770    -6.4760    -5.0110 h1         1 D5W       0.007533
     45 H14         -2.7530    -2.4300    -5.1130 hn         1 D5W       0.196500
     46 H15         -2.8740    -3.3940    -2.3000 h1         1 D5W       0.082700
     47 H16         -0.3850    -3.8200    -2.4170 hc         1 D5W       0.027700
     48 H17         -2.4420    -5.5050    -2.8890 hc         1 D5W       0.018367
     49 H18         -1.6000    -5.6450    -4.4380 hc         1 D5W       0.018367
     50 H19         -0.7530    -6.0300    -2.9340 hc         1 D5W       0.018367
     51 H20         -0.9570    -3.5200    -5.3860 hc         1 D5W       0.019700
     52 H21          0.5190    -4.2400    -4.7280 hc         1 D5W       0.019700
     53 H22         -0.3940    -1.3860    -4.6800 hc         1 D5W       0.016367
     54 H23          0.5650    -1.9770    -3.3160 hc         1 D5W       0.016367
     55 H24          1.2240    -2.0450    -4.9560 hc         1 D5W       0.016367
     56 H25         -0.8020    -2.1370    -1.0890 hn         1 D5W       0.183500
     57 H26         -1.6670     0.5860    -1.1860 h1         1 D5W       0.040700
     58 H27         -0.1480     0.4320    -2.0790 h1         1 D5W       0.040700
     59 H28         -1.8170     0.0010     3.5610 h4         1 D5W       0.004800
     60 H29          0.8990    -0.0000     4.7130 hn         1 D5W       0.333400
@<TRIPOS>BOND
     1     1     2 ar  
     2     1     5 ar  
     3     1    29 1   
     4     2     3 ar  
     5     2    33 1   
     6     3     4 ar  
     7     3    34 1   
     8     4    30 ar  
     9     5    30 ar  
    10     6     7 ar  
    11     6    13 ar  
    12     6    35 1   
    13     7     8 1   
    14     7     9 ar  
    15     9    10 ar  
    16     9    36 1   
    17    10    11 1   
    18    10    12 ar  
    19    12    13 ar  
    20    12    37 1   
    21    13    14 1   
    22    14    15 1   
    23    14    18 1   
    24    14    38 1   
    25    15    16 1   
    26    15    17 1   
    27    16    39 1   
    28    16    40 1   
    29    16    41 1   
    30    17    42 1   
    31    17    43 1   
    32    17    44 1   
    33    18    19 2   
    34    18    20 1   
    35    20    21 1   
    36    20    45 1   
    37    21    22 1   
    38    21    26 1   
    39    21    46 1   
    40    22    23 1   
    41    22    24 1   
    42    22    47 1   
    43    23    48 1   
    44    23    49 1   
    45    23    50 1   
    46    24    25 1   
    47    24    51 1   
    48    24    52 1   
    49    25    53 1   
    50    25    54 1   
    51    25    55 1   
    52    26    27 2   
    53    26    28 1   
    54    28    29 1   
    55    28    56 1   
    56    29    57 1   
    57    29    58 1   
    58    30    31 1   
    59    31    32 2   
    60    31    59 1   
    61    32    60 1   
@<TRIPOS>SUBSTRUCTURE
     1 D5W         1 TEMP              0 ****  ****    0 ROOT
