@<TRIPOS>MOLECULE
D5X
   23    22     1     0     0
SMALL
bcc


@<TRIPOS>ATOM
      1 O3P         0.9820   -0.4470   -0.9340 o         1 D5X     -0.910500
      2 P           2.3340    0.1880   -0.8920 p5        1 D5X      1.322900
      3 O2P         3.3510   -0.3420    0.0720 o         1 D5X     -0.910500
      4 O1P         2.9280    0.6350   -2.2220 o         1 D5X     -0.910500
      5 O5          2.0490    1.7970   -0.3100 os        1 D5X     -0.566200
      6 C5          3.1890    2.4940   -0.0000 c3        1 D5X      0.190400
      7 C4          3.5830    3.5020   -1.1160 c3        1 D5X      0.092100
      8 O4          2.7230    3.4520   -2.2280 oh        1 D5X     -0.662800
      9 C3          5.0460    3.2590   -1.5940 c3        1 D5X      0.251600
     10 O3          5.9570    3.3840   -0.5080 oh        1 D5X     -0.672800
     11 O3'         5.3050    1.9830   -2.0940 oh        1 D5X     -0.672800
     12 C2          5.4240    4.3100   -2.6440 c         1 D5X      0.595100
     13 O2          5.9120    5.4130   -2.3670 o         1 D5X     -0.597100
     14 C1          5.1040    3.9070   -4.0470 c3        1 D5X     -0.207100
     15 H3          4.0460    1.7850    0.1900 h1        1 D5X      0.004700
     16 H4          3.0090    3.1000    0.9360 h1        1 D5X      0.004700
     17 H5          3.5300    4.5560   -0.7290 h1        1 D5X      0.029700
     18 H6          2.4230    2.5130   -2.3140 ho        1 D5X      0.485000
     19 H7          6.0260    2.5050   -0.1110 ho        1 D5X      0.471500
     20 H8          4.4670    1.4230   -2.0680 ho        1 D5X      0.471500
     21 H9          4.0080    3.6690   -4.0960 hc        1 D5X      0.063700
     22 H10         5.3600    4.7100   -4.7760 hc        1 D5X      0.063700
     23 H11         5.6660    2.9720   -4.2910 hc        1 D5X      0.063700
@<TRIPOS>BOND
     1    1    2 1   
     2    2    3 1   
     3    2    4 1   
     4    2    5 1   
     5    5    6 1   
     6    6    7 1   
     7    6   15 1   
     8    6   16 1   
     9    7    8 1   
    10    7    9 1   
    11    7   17 1   
    12    8   18 1   
    13    9   10 1   
    14    9   11 1   
    15    9   12 1   
    16   10   19 1   
    17   11   20 1   
    18   12   13 2   
    19   12   14 1   
    20   14   21 1   
    21   14   22 1   
    22   14   23 1   
@<TRIPOS>SUBSTRUCTURE
     1 D5X         1 TEMP              0 ****  ****    0 ROOT
