@<TRIPOS>MOLECULE
molecule
   23    22     1     0     0
SMALL
bcc


@<TRIPOS>ATOM
      1 O3P          0.0000     0.0000     0.0000 o          1 D5X      -0.908500
      2 P            1.6100     0.0000     0.0000 p5         1 D5X       1.179900
      3 O2P          2.1040     0.0000     1.3960 o          1 D5X      -0.908500
      4 O1P          2.1470    -1.3140    -0.7590 o          1 D5X      -0.908500
      5 O5           2.1470     1.3150    -0.7580 os         1 D5X      -0.586200
      6 C5           3.5320     1.6570    -0.8360 c3         1 D5X       0.204400
      7 C4           3.6920     2.9590    -1.6230 c3         1 D5X       0.160100
      8 O4           3.2790     2.7530    -2.9740 oh         1 D5X      -0.631800
      9 C3           5.1590     3.3930    -1.6000 c3         1 D5X       0.263600
     10 O3           5.5410     3.7120    -0.2600 oh         1 D5X      -0.577300
     11 O3'          5.9780     2.3280    -2.0870 oh         1 D5X      -0.577300
     12 C2           5.3390     4.6060    -2.4750 c          1 D5X       0.529100
     13 O2           5.8350     5.6100    -2.0230 o          1 D5X      -0.564100
     14 C1           4.8990     4.5680    -3.9160 c3         1 D5X      -0.179100
     15 H3           3.9280     1.7890     0.1640 h1         1 D5X       0.036700
     16 H4           4.0730     0.8640    -1.3370 h1         1 D5X       0.036700
     17 H5           3.0810     3.7310    -1.1720 h1         1 D5X       0.048700
     18 H6           2.3390     2.8080    -3.0270 ho         1 D5X       0.427000
     19 H7           6.4750     3.8340    -0.2200 ho         1 D5X       0.386000
     20 H8           6.8780     2.4970    -1.8640 ho         1 D5X       0.386000
     21 H9           3.8620     4.8730    -3.9860 hc         1 D5X       0.061033
     22 H10          5.5140     5.2430    -4.4990 hc         1 D5X       0.061033
     23 H11          5.0050     3.5600    -4.3000 hc         1 D5X       0.061033
@<TRIPOS>BOND
     1    10     9 1
     2     6     5 1
     3     6     7 1
     4     9     7 1
     5     9    11 1
     6     9    12 1
     7     5     2 1
     8    13    12 2
     9     7     8 1
    10     3     2 1
    11    12    14 1
    12     1     2 1
    13     2     4 1
    14     6    15 1
    15     6    16 1
    16     7    17 1
    17     8    18 1
    18    10    19 1
    19    11    20 1
    20    14    21 1
    21    14    22 1
    22    14    23 1
@<TRIPOS>SUBSTRUCTURE
     1 D5X         1 TEMP              0 ****  ****    0 ROOT
