@<TRIPOS>MOLECULE
molecule
   83    86     1     0     0
SMALL
bcc


@<TRIPOS>ATOM
      1 C1           0.0000     0.0000     0.0000 ca         1 D61      -0.137000
      2 C2           1.3940     0.0000     0.0000 ca         1 D61      -0.137000
      3 C3           2.0950     0.0000     1.1670 ca         1 D61      -0.108000
      4 C4           1.4050     0.0000     2.3920 ca         1 D61      -0.030000
      5 C5          -0.0120     0.0010     2.3920 ca         1 D61      -0.040000
      6 C6          -0.7010     0.0010     1.1670 ca         1 D61      -0.117000
      7 C7          -0.7010     0.0010     3.6160 ca         1 D61      -0.127000
      8 C8          -0.0000     0.0010     4.7830 ca         1 D61      -0.112000
      9 C9           1.3930     0.0010     4.7830 ca         1 D61      -0.065300
     10 C10          2.0940     0.0010     3.6170 ca         1 D61      -0.115000
     11 C11          2.1350     0.0010     6.0950 c3         1 D61      -0.043100
     12 C12          2.3860    -1.4410     6.5390 c3         1 D61      -0.077400
     13 C13          3.1390    -1.4410     7.8710 c3         1 D61      -0.079400
     14 C14          3.3910    -2.8840     8.3150 c3         1 D61      -0.102400
     15 C15          4.1440    -2.8840     9.6470 c3         1 D61       0.126000
     16 N16          4.3840    -4.2650    10.0720 ns         1 D61      -0.571900
     17 C17          5.0370    -4.5110    11.2260 c          1 D61       0.690100
     18 O18          5.5050    -3.5930    11.8650 o          1 D61      -0.621100
     19 C19          5.1850    -5.9270    11.7190 c3         1 D61       0.066100
     20 O20          5.7430    -5.9160    13.0340 os         1 D61      -0.353600
     21 C21          5.4110    -7.0650    13.8170 c3         1 D61       0.148400
     22 C22          5.9540    -6.8900    15.2360 c3         1 D61      -0.078400
     23 C23          5.5970    -8.1200    16.0740 c3         1 D61      -0.083400
     24 C24          6.1420    -7.9450    17.4940 c3         1 D61      -0.075400
     25 C25          5.7850    -9.1740    18.3320 c3         1 D61      -0.044100
     26 C26          6.3200    -9.0020    19.7300 ca         1 D61      -0.065300
     27 C27          5.5240    -8.3950    20.6990 ca         1 D61      -0.113000
     28 C28          5.9780    -8.2240    21.9710 ca         1 D61      -0.127000
     29 C29          7.2670    -8.6660    22.3150 ca         1 D61      -0.041000
     30 C30          8.0760    -9.2830    21.3290 ca         1 D61      -0.031000
     31 C31          7.5730    -9.4460    20.0280 ca         1 D61      -0.116000
     32 C32          9.3660    -9.7240    21.6730 ca         1 D61      -0.110000
     33 C33          9.8190    -9.5520    22.9450 ca         1 D61      -0.137000
     34 C34          9.0230    -8.9450    23.9140 ca         1 D61      -0.137000
     35 C35          7.7690    -8.5060    23.6190 ca         1 D61      -0.117000
     36 C36          6.1100    -6.7010    10.7790 c3         1 D61       0.008100
     37 O37          5.5630    -6.6910     9.4580 os         1 D61      -0.367600
     38 C38          4.6150    -7.7320     9.2130 c3         1 D61       0.013400
     39 C39          4.2000    -7.7020     7.7660 c          1 D61       0.891600
     40 O40          4.6670    -6.8740     7.0200 o          1 D61      -0.851800
     41 O41          3.3100    -8.5950     7.3040 o          1 D61      -0.851800
     42 C42          7.4700    -6.0530    10.7650 c          1 D61       0.902600
     43 O43          7.8740    -5.5190     9.7590 o          1 D61      -0.833800
     44 O44          8.2320    -6.0680    11.8690 o          1 D61      -0.833800
     45 H1          -0.5340    -0.0000    -0.9430 ha         1 D61       0.116000
     46 H2           1.9270    -0.0010    -0.9430 ha         1 D61       0.120000
     47 H3           3.1780     0.0000     1.1520 ha         1 D61       0.134000
     48 H6          -1.7840     0.0010     1.1510 ha         1 D61       0.123000
     49 H7          -1.7840     0.0010     3.6320 ha         1 D61       0.124000
     50 H8          -0.5340     0.0010     5.7260 ha         1 D61       0.130000
     51 H10          3.1770     0.0010     3.6320 ha         1 D61       0.141000
     52 H11          1.5430     0.5120     6.8450 hc         1 D61       0.044200
     53 H11A         3.0830     0.5120     5.9740 hc         1 D61       0.044200
     54 H12          2.9790    -1.9520     5.7890 hc         1 D61       0.053200
     55 H12A         1.4390    -1.9520     6.6600 hc         1 D61       0.053200
     56 H13          2.5470    -0.9300     8.6200 hc         1 D61       0.032700
     57 H13A         4.0870    -0.9300     7.7490 hc         1 D61       0.032700
     58 H14          3.9830    -3.3950     7.5660 hc         1 D61       0.063200
     59 H14A         2.4430    -3.3940     8.4370 hc         1 D61       0.063200
     60 H15          3.5520    -2.3730    10.3960 h1         1 D61       0.032200
     61 H15A         5.0920    -2.3730     9.5250 h1         1 D61       0.032200
     62 HN16         4.0150    -5.0240     9.5340 hn         1 D61       0.345500
     63 H19          4.2120    -6.4040    11.7440 h1         1 D61       0.012700
     64 H21          4.3340    -7.1770    13.8540 h1         1 D61       0.010200
     65 H21A         5.8510    -7.9470    13.3680 h1         1 D61       0.010200
     66 H22          7.0310    -6.7780    15.2000 hc         1 D61       0.057700
     67 H22A         5.5150    -6.0080    15.6850 hc         1 D61       0.057700
     68 H23          4.5210    -8.2310    16.1110 hc         1 D61       0.035700
     69 H23A         6.0360    -9.0020    15.6250 hc         1 D61       0.035700
     70 H24          7.2190    -7.8330    17.4570 hc         1 D61       0.046700
     71 H24A         5.7030    -7.0620    17.9430 hc         1 D61       0.046700
     72 H25          4.7080    -9.2860    18.3680 hc         1 D61       0.047200
     73 H25A         6.2250   -10.0570    17.8830 hc         1 D61       0.047200
     74 H27          4.5300    -8.0550    20.4370 ha         1 D61       0.132000
     75 H28          5.3490    -7.7510    22.7150 ha         1 D61       0.125000
     76 H31          8.1320   -10.0190    19.2980 ha         1 D61       0.140000
     77 H32          9.9960   -10.1970    20.9300 ha         1 D61       0.133000
     78 H33         10.8140    -9.8930    23.2070 ha         1 D61       0.120000
     79 H34          9.4090    -8.8210    24.9190 ha         1 D61       0.117000
     80 H35          7.1620    -8.0360    24.3830 ha         1 D61       0.124000
     81 H36          6.2010    -7.7240    11.1240 h1         1 D61       0.023700
     82 H38          5.0650    -8.6910     9.4400 h1         1 D61      -0.001800
     83 H38A         3.7450    -7.5840     9.8420 h1         1 D61      -0.001800
@<TRIPOS>BOND
     1     1     2 ar
     2     1     6 ar
     3     2     3 ar
     4     3     4 ar
     5     4     5 ar
     6     4    10 ar
     7     5     6 ar
     8     5     7 ar
     9     7     8 ar
    10     8     9 ar
    11     9    10 ar
    12     9    11 1
    13    11    12 1
    14    12    13 1
    15    13    14 1
    16    14    15 1
    17    15    16 1
    18    16    17 1
    19    17    18 2
    20    17    19 1
    21    19    20 1
    22    19    36 1
    23    20    21 1
    24    21    22 1
    25    22    23 1
    26    23    24 1
    27    24    25 1
    28    25    26 1
    29    26    27 ar
    30    26    31 ar
    31    27    28 ar
    32    28    29 ar
    33    29    30 ar
    34    29    35 ar
    35    30    31 ar
    36    30    32 ar
    37    32    33 ar
    38    33    34 ar
    39    34    35 ar
    40    36    37 1
    41    36    42 1
    42    37    38 1
    43    38    39 1
    44    39    40 1
    45    39    41 1
    46    42    43 1
    47    42    44 1
    48     1    45 1
    49     2    46 1
    50     3    47 1
    51     6    48 1
    52     7    49 1
    53     8    50 1
    54    10    51 1
    55    11    52 1
    56    11    53 1
    57    12    54 1
    58    12    55 1
    59    13    56 1
    60    13    57 1
    61    14    58 1
    62    14    59 1
    63    15    60 1
    64    15    61 1
    65    16    62 1
    66    19    63 1
    67    21    64 1
    68    21    65 1
    69    22    66 1
    70    22    67 1
    71    23    68 1
    72    23    69 1
    73    24    70 1
    74    24    71 1
    75    25    72 1
    76    25    73 1
    77    27    74 1
    78    28    75 1
    79    31    76 1
    80    32    77 1
    81    33    78 1
    82    34    79 1
    83    35    80 1
    84    36    81 1
    85    38    82 1
    86    38    83 1
@<TRIPOS>SUBSTRUCTURE
     1 D61         1 TEMP              0 ****  ****    0 ROOT
