@<TRIPOS>MOLECULE
molecule
   46    49     1     0     0
SMALL
bcc


@<TRIPOS>ATOM
      1 NAA          0.0000     0.0000     0.0000 nz         1 D63      -0.750600
      2 NAB          2.0040     0.1230    -1.0770 n2         1 D63      -0.728100
      3 NAC         14.7520    -3.3480     9.4570 nz         1 D63      -0.715400
      4 OAD         15.3510    -3.3450     7.2500 o          1 D63      -0.386100
      5 CAE         12.8840    -3.1590     6.2170 ca         1 D63      -0.068000
      6 CAF         12.0430    -2.2920     8.2910 ca         1 D63      -0.068000
      7 CAG         11.6860    -2.8420     5.5980 ca         1 D63      -0.108500
      8 CAH         10.8450    -1.9750     7.6730 ca         1 D63      -0.108500
      9 CAI          8.0420    -0.9820     6.9900 ca         1 D63      -0.108500
     10 CAJ          8.9530    -1.9700     5.0020 ca         1 D63      -0.108500
     11 CAK          6.8530    -0.7360     6.3230 ca         1 D63      -0.086500
     12 CAL          7.7640    -1.7250     4.3350 ca         1 D63      -0.086500
     13 CAM          1.4140     0.0000     2.4930 ca         1 D63      -0.140000
     14 CAN          2.0750    -0.0190     3.6870 ca         1 D63      -0.074000
     15 CAO          3.4600    -0.4580     1.3330 ca         1 D63      -0.004000
     16 NAP          4.3340    -0.3340     4.7290 na         1 D63      -0.200300
     17 NAQ          5.4250    -0.6790     2.8740 nc         1 D63      -0.573100
     18 CAR          1.3780     0.0000     0.0000 ce         1 D63       0.541800
     19 CAT         13.0630    -2.8840     7.5630 ca         1 D63      -0.203600
     20 CAU          2.1060    -0.2190     1.3160 ca         1 D63      -0.248900
     21 CAV         10.6660    -2.2500     6.3260 cp         1 D63       0.031000
     22 CAW          9.0920    -1.5990     6.3290 cp         1 D63      -0.036000
     23 CAX          6.7140    -1.1080     4.9950 ca         1 D63      -0.103900
     24 CAY          5.5500    -0.5910     4.2110 cd         1 D63       0.475400
     25 CAZ          3.4630    -0.2620     3.7210 ca         1 D63      -0.084200
     26 CBA          4.1430    -0.4770     2.5650 ca         1 D63       0.100400
     27 HNAA        -0.3340    -0.7750     0.5380 hn         1 D63       0.474467
     28 HNAB        -0.3340     0.8540     0.4020 hn         1 D63       0.474467
     29 HNAC         3.0050     0.1230    -1.0790 hn         1 D63       0.493400
     30 HNAD        14.7080    -2.4530     9.9010 hn         1 D63       0.470800
     31 HNAE        15.6630    -3.7410     9.5860 hn         1 D63       0.470800
     32 HAE         13.6810    -3.6220     5.6480 ha         1 D63       0.149500
     33 HAF         12.1910    -2.0590     9.3380 ha         1 D63       0.149500
     34 HAG         11.5460    -3.0570     4.5460 ha         1 D63       0.166000
     35 HAH         10.0480    -1.5120     8.2420 ha         1 D63       0.166000
     36 HAI          8.1510    -0.6910     8.0280 ha         1 D63       0.146500
     37 HAJ          9.7870    -2.4160     4.4740 ha         1 D63       0.146500
     38 HAK          6.0320    -0.2540     6.8390 ha         1 D63       0.153500
     39 HAL          7.6550    -2.0150     3.2970 ha         1 D63       0.153500
     40 HAM          0.3470     0.1870     2.4670 ha         1 D63       0.115000
     41 HAN          1.5330     0.1530     4.6090 ha         1 D63       0.154000
     42 HAO          3.9910    -0.6280     0.4040 ha         1 D63       0.154000
     43 HNAP         4.1220    -0.2130     5.6990 hn         1 D63       0.321700
     44 HAA3        -0.3340    -0.0870    -0.9400 hn         1 D63       0.474467
     45 HAC3        14.0730    -3.9580     9.8680 hn         1 D63       0.470800
     46 CAS         14.4790    -3.1990     8.0390 c          1 D63       0.536700
@<TRIPOS>BOND
     1     1    18 1
     2     2    18 2
     3    18    20 1
     4    20    13 ar
     5    20    15 ar
     6    13    14 ar
     7    15    26 ar
     8    14    25 ar
     9    26    25 ar
    10    26    17 1
    11    25    16 1
    12    17    24 2
    13    16    24 1
    14    24    23 1
    15    23    12 ar
    16    23    11 ar
    17    12    10 ar
    18    11     9 ar
    19    10    22 ar
    20     9    22 ar
    21    22    21 1
    22    21     7 ar
    23    21     8 ar
    24     7     5 ar
    25     8     6 ar
    26     5    19 ar
    27     6    19 ar
    28    19    46 1
    29    46     3 1
    30    46     4 2
    31     1    27 1
    32     1    28 1
    33     2    29 1
    34     3    30 1
    35     3    31 1
    36     5    32 1
    37     6    33 1
    38     7    34 1
    39     8    35 1
    40     9    36 1
    41    10    37 1
    42    11    38 1
    43    12    39 1
    44    13    40 1
    45    14    41 1
    46    15    42 1
    47    16    43 1
    48    44     1 1
    49    45     3 1
@<TRIPOS>SUBSTRUCTURE
     1 D63         1 TEMP              0 ****  ****    0 ROOT
