@<TRIPOS>MOLECULE
D63
   46    49     1     0     0
SMALL
bcc


@<TRIPOS>ATOM
      1 NAA          0.0000     0.0000     0.0000 nz         1 D63       0.089400
      2 NAB          2.0040    -0.0650    -1.0820 n2         1 D63      -0.433100
      3 NAC         14.6180    -0.9100     9.4030 nz         1 D63       0.378600
      4 OAD         15.2170    -2.6000     7.7330 o          1 D63      -0.479100
      5 CAE         13.0460    -2.0910     6.2240 ca         1 D63       0.010500
      6 CAF         12.0570    -0.4210     7.8330 ca         1 D63       0.010500
      7 CAG         11.8080    -1.8720     5.6410 ca         1 D63      -0.158500
      8 CAH         10.9790    -0.4090     7.0760 ca         1 D63      -0.158500
      9 CAI          8.4680     0.7010     6.5280 ca         1 D63      -0.101500
     10 CAJ          8.9800    -1.0590     4.9770 ca         1 D63      -0.101500
     11 CAK          7.1850     0.7830     6.0110 ca         1 D63      -0.058500
     12 CAL          7.6970    -0.9770     4.4610 ca         1 D63      -0.058500
     13 CAM          1.4140     0.0000     2.4930 ca         1 D63      -0.154000
     14 CAN          2.0900     0.0240     3.6790 ca         1 D63      -0.047000
     15 CAO          3.4650     0.3240     1.2980 ca         1 D63       0.085000
     16 NAP          4.3730     0.2620     4.6870 na         1 D63       0.349700
     17 NAQ          5.4570     0.4980     2.8110 nc         1 D63      -0.454100
     18 CAR          1.3780     0.0000     0.0000 ce         1 D63       0.273800
     19 CAT         13.2050    -1.3490     7.3670 ca         1 D63      -0.158600
     20 CAU          2.1020     0.1500     1.3030 ca         1 D63      -0.227900
     21 CAV         10.6470    -0.9910     6.0320 cp         1 D63       0.130000
     22 CAW          9.3660    -0.2200     6.0110 cp         1 D63      -0.040000
     23 CAX          6.8000    -0.0560     4.9770 ca         1 D63      -0.063900
     24 CAY          5.5940     0.4460     4.1490 cd         1 D63       0.253400
     25 CAZ          3.4880     0.2010     3.6910 ca         1 D63      -0.270200
     26 CBA          4.1630     0.3490     2.5220 ca         1 D63       0.048400
     27 HNAA        -0.7110    -0.6370     0.3010 hn         1 D63       0.226133
     28 HNAB        -0.4080     0.8360     0.3680 hn         1 D63       0.226133
     29 HNAC         1.3380     0.1730    -1.7910 hn         1 D63       0.316400
     30 HNAD        14.0240    -0.9990    10.2030 hn         1 D63       0.219467
     31 HNAE        15.4750    -1.3240     9.7120 hn         1 D63       0.219467
     32 HAE         13.8430    -2.7960     6.0240 ha         1 D63       0.144000
     33 HAF         11.9430     0.1720     8.7320 ha         1 D63       0.144000
     34 HAG         11.5400    -2.4530     4.7670 ha         1 D63       0.120000
     35 HAH         10.1090     0.0890     7.4860 ha         1 D63       0.120000
     36 HAI          8.6810     1.3540     7.3650 ha         1 D63       0.129500
     37 HAJ          9.6790    -1.8800     4.8740 ha         1 D63       0.129500
     38 HAK          6.4500     1.3360     6.5830 ha         1 D63       0.127500
     39 HAL          7.7210    -1.9350     3.9560 ha         1 D63       0.127500
     40 HAM          0.3520    -0.2010     2.5660 ha         1 D63       0.092000
     41 HAN          1.2920    -0.2900     4.3420 ha         1 D63       0.134000
     42 HAO          3.9990     0.1710     0.3670 ha         1 D63       0.139000
     43 HNAP         3.9880     0.3150     5.6090 hn         1 D63       0.141700
     44 HAA3        -0.0690    -0.0020    -0.9980 hn         1 D63       0.226133
     45 HAC3        14.7300     0.0770     9.5250 hn         1 D63       0.219467
     46 CAS         14.2870    -1.5720     8.3800 c          1 D63       0.131700
@<TRIPOS>BOND
     1     1    18 1   
     2     1    27 1   
     3     1    28 1   
     4     1    44 1   
     5     2    18 2   
     6     2    29 1   
     7     3    30 1   
     8     3    31 1   
     9     3    45 1   
    10     3    46 1   
    11     4    46 2   
    12     5     7 ar  
    13     5    19 ar  
    14     5    32 1   
    15     6     8 ar  
    16     6    19 ar  
    17     6    33 1   
    18     7    21 ar  
    19     7    34 1   
    20     8    21 ar  
    21     8    35 1   
    22     9    11 ar  
    23     9    22 ar  
    24     9    36 1   
    25    10    12 ar  
    26    10    22 ar  
    27    10    37 1   
    28    11    23 ar  
    29    11    38 1   
    30    12    23 ar  
    31    12    39 1   
    32    13    14 ar  
    33    13    20 ar  
    34    13    40 1   
    35    14    25 ar  
    36    14    41 1   
    37    15    20 ar  
    38    15    26 ar  
    39    15    42 1   
    40    16    24 1   
    41    16    25 1   
    42    16    43 1   
    43    17    24 2   
    44    17    26 1   
    45    18    20 1   
    46    19    46 1   
    47    21    22 1   
    48    23    24 1   
    49    25    26 ar  
@<TRIPOS>SUBSTRUCTURE
     1 D63         1 TEMP              0 ****  ****    0 ROOT
