@<TRIPOS>MOLECULE
D64
   33    35     1     0     0
SMALL
bcc


@<TRIPOS>ATOM
      1 C1           0.0000     0.0000     0.0000 ca         1 D64       0.421600
      2 C2           1.3970     0.0000     0.0000 ca         1 D64      -0.291600
      3 C3           2.0860     0.0000     1.2290 ca         1 D64       0.566200
      4 N4           1.3670     0.0260     2.3640 nb         1 D64      -0.685000
      5 C5           0.0150     0.0260     2.3410 ca         1 D64       0.724900
      6 N6          -0.6690     0.0190     1.1680 nb         1 D64      -0.664000
      7 N7           3.4510    -0.0130     1.2860 nv         1 D64      -0.623500
      8 C8          -0.7080    -0.0010    -1.2130 ca         1 D64      -0.160300
      9 C9          -0.0150    -0.0010    -2.4280 ca         1 D64      -0.063000
     10 C12          1.3850    -0.0090    -2.4380 cp         1 D64      -0.045000
     11 C13          2.0830    -0.0040    -1.2130 ca         1 D64      -0.053000
     12 N14         -0.6520     0.0400     3.4970 nv         1 D64      -0.593500
     13 C26          3.2640    -1.0140    -5.6240 ca         1 D64      -0.102500
     14 C27          3.6230     0.2450    -6.0950 ca         1 D64      -0.089300
     15 C22          3.2450     1.3990    -5.4030 ca         1 D64      -0.102500
     16 C23          2.5170     1.2790    -4.2140 ca         1 D64      -0.085500
     17 CAP          2.1520     0.0170    -3.7190 cp         1 D64      -0.046000
     18 C25          2.5270    -1.1220    -4.4330 ca         1 D64      -0.085500
     19 H8          -1.7920     0.0060    -1.2080 ha         1 D64       0.122000
     20 H13          3.1670    -0.0100    -1.2140 ha         1 D64       0.113000
     21 H7N1         3.9520    -0.8560     1.0880 hn         1 D64       0.280800
     22 H7N2         3.9480     0.8110     1.5630 hn         1 D64       0.280800
     23 H141        -0.7030     0.8820     4.0340 hn         1 D64       0.277800
     24 H142        -1.1150    -0.7880     3.8170 hn         1 D64       0.277800
     25 H9          -0.5620    -0.0050    -3.3630 ha         1 D64       0.110000
     26 H22          3.5250     2.3770    -5.7770 ha         1 D64       0.109000
     27 H23          2.2230     2.1710    -3.6750 ha         1 D64       0.106000
     28 H25          2.2470    -2.1010    -4.0650 ha         1 D64       0.106000
     29 H26          3.5550    -1.9050    -6.1680 ha         1 D64       0.109000
     30 HAC1         4.5850     1.3950    -7.6120 hc         1 D64       0.007700
     31 HAC2         5.3380    -0.1730    -7.2910 hc         1 D64       0.007700
     32 HAC3         3.8180    -0.0900    -8.1920 hc         1 D64       0.007700
     33 CAC          4.3960     0.3520    -7.3890 c3         1 D64       0.063200
@<TRIPOS>BOND
     1     1     2 ar  
     2     1     6 ar  
     3     1     8 ar  
     4     2     3 ar  
     5     2    11 ar  
     6     3     4 ar  
     7     3     7 1   
     8     4     5 ar  
     9     5     6 ar  
    10     5    12 1   
    11     7    21 1   
    12     7    22 1   
    13     8     9 ar  
    14     8    19 1   
    15     9    10 ar  
    16     9    25 1   
    17    10    11 ar  
    18    10    17 1   
    19    11    20 1   
    20    12    23 1   
    21    12    24 1   
    22    13    14 ar  
    23    13    18 ar  
    24    13    29 1   
    25    14    15 ar  
    26    14    33 1   
    27    15    16 ar  
    28    15    26 1   
    29    16    17 ar  
    30    16    27 1   
    31    17    18 ar  
    32    18    28 1   
    33    30    33 1   
    34    31    33 1   
    35    32    33 1   
@<TRIPOS>SUBSTRUCTURE
     1 D64         1 TEMP              0 ****  ****    0 ROOT
