@<TRIPOS>MOLECULE
molecule
   39    41     1     0     0
SMALL
bcc


@<TRIPOS>ATOM
      1 F7           0.0000     0.0000     0.0000 f          1 D65      -0.492000
      2 S1           1.6100     0.0000     0.0000 s6         1 D65       2.963000
      3 F4           3.2190     0.0000     0.0280 f          1 D65      -0.492000
      4 F5           1.6090    -1.5890     0.2560 f          1 D65      -0.492000
      5 F3           1.6100     0.2560     1.5900 f          1 D65      -0.492000
      6 F6           1.6100    -0.2560    -1.5890 f          1 D65      -0.492000
      7 C5           1.6100     1.7880    -0.2870 ca         1 D65      -0.837000
      8 C4           2.4570     2.6030     0.4410 ca         1 D65       0.022000
      9 C3           2.4600     3.9660     0.2240 ca         1 D65      -0.193000
     10 C6           0.7670     2.3330    -1.2380 ca         1 D65       0.022000
     11 C1           0.7640     3.6960    -1.4600 ca         1 D65      -0.193000
     12 C2           1.6100     4.5190    -0.7260 ca         1 D65       0.233600
     13 N1           1.6100     5.8990    -0.9480 nu         1 D65      -0.681000
     14 C7           2.3400     6.7290    -0.1260 cc         1 D65       0.293300
     15 C8           3.3180     7.5550    -0.6470 cd         1 D65      -0.334300
     16 C9           4.0350     8.3800     0.2160 cd         1 D65       0.504600
     17 C10          5.1050     9.2890    -0.3340 c3         1 D65      -0.146400
     18 N2           2.1090     6.7550     1.2190 na         1 D65      -0.009800
     19 C11          2.8380     7.5820     2.0270 cc         1 D65       0.470500
     20 N5           3.7840     8.3730     1.5080 nc         1 D65      -0.678000
     21 N3           1.2150     6.0730     2.0550 nc         1 D65      -0.559100
     22 C12          1.4310     6.4960     3.2760 cd         1 D65       0.518300
     23 N4           2.4030     7.4010     3.2690 nd         1 D65      -0.427300
     24 C13          0.6910     6.0280     4.5020 c3         1 D65       0.429300
     25 F1          -0.6730     6.3060     4.3580 f          1 D65      -0.220300
     26 F2           0.8720     4.6490     4.6580 f          1 D65      -0.220300
     27 C14          1.2320     6.7560     5.7340 c3         1 D65      -0.123100
     28 H1           3.1200     2.1710     1.1810 ha         1 D65       0.150000
     29 H2           3.1230     4.6050     0.7950 ha         1 D65       0.140000
     30 H3           0.1080     1.6900    -1.8090 ha         1 D65       0.150000
     31 H4           0.1020     4.1240    -2.2030 ha         1 D65       0.140000
     32 H5           1.0760     6.2840    -1.7020 hn         1 D65       0.469800
     33 H6           3.3940     7.6950    -1.7190 ha         1 D65       0.168000
     34 H7           5.6220     9.7750     0.4840 hc         1 D65       0.065700
     35 H8           5.8110     8.7060    -0.9130 hc         1 D65       0.065700
     36 H9           4.6490    10.0390    -0.9690 hc         1 D65       0.065700
     37 H10          1.0910     7.8230     5.6140 hc         1 D65       0.070367
     38 H11          2.2880     6.5410     5.8470 hc         1 D65       0.070367
     39 H12          0.6990     6.4190     6.6150 hc         1 D65       0.070367
@<TRIPOS>BOND
     1    17    16 1
     2    20    16 2
     3    20    19 1
     4    16    15 1
     5    19    23 2
     6    19    18 1
     7    23    22 1
     8    15    14 2
     9    26    24 1
    10    18    14 1
    11    18    21 1
    12    22    24 1
    13    22    21 2
    14    14    13 1
    15    24    27 1
    16    24    25 1
    17    13    12 1
    18    12    11 ar
    19    12     9 ar
    20    11    10 ar
    21     9     8 ar
    22     5     2 1
    23    10     7 ar
    24     8     7 ar
    25     7     2 1
    26     3     2 1
    27     2     1 1
    28     2     4 1
    29     2     6 1
    30     8    28 1
    31     9    29 1
    32    10    30 1
    33    11    31 1
    34    13    32 1
    35    15    33 1
    36    17    34 1
    37    17    35 1
    38    17    36 1
    39    27    37 1
    40    27    38 1
    41    27    39 1
@<TRIPOS>SUBSTRUCTURE
     1 D65         1 TEMP              0 ****  ****    0 ROOT
