@<TRIPOS>MOLECULE
molecule
   50    50     1     0     0
SMALL
bcc


@<TRIPOS>ATOM
      1 C1           0.0000     0.0000     0.0000 c3         1 D66       0.113700
      2 N1           2.9230     2.1000     5.6960 nz         1 D66      -0.818600
      3 O1           1.4290     0.0000     0.0000 os         1 D66      -0.315900
      4 C2           2.0460     0.0000     1.2110 ca         1 D66       0.173100
      5 N2           5.8330     3.7730     6.5770 ns         1 D66      -0.574900
      6 O2           4.3540     0.6410     7.7480 oh         1 D66      -0.562800
      7 C3           3.4310    -0.0000     1.2850 ca         1 D66      -0.180000
      8 O3           4.6260     3.1680     8.3370 o          1 D66      -0.544100
      9 C4           4.0560    -0.0000     2.5170 ca         1 D66      -0.090500
     10 C5           3.3020    -0.0000     3.6750 ca         1 D66      -0.181300
     11 C6           3.9860    -0.0000     5.0180 c3         1 D66      -0.056100
     12 C7           4.2180     1.4430     5.4730 c3         1 D66       0.068500
     13 C8           5.0220     1.4450     6.7740 c3         1 D66       0.038100
     14 C9           5.1450     2.8570     7.2860 c          1 D66       0.609100
     15 C10          5.9530     5.1460     7.0750 c3         1 D66       0.002700
     16 C11          7.2140     5.7910     6.4950 c3         1 D66      -0.187400
     17 C12          8.4480     5.0340     6.9900 c3         1 D66      -0.010700
     18 C13          8.5830     5.2130     8.5040 c3         1 D66      -0.091600
     19 C14          9.6960     5.5850     6.2970 c3         1 D66      -0.091600
     20 C15          4.7440     5.9400     6.6550 c          1 D66       0.898600
     21 C16          1.9210     0.0010     3.6050 ca         1 D66      -0.090500
     22 C17          1.2910     0.0060     2.3750 ca         1 D66      -0.180000
     23 H1          -0.3590     0.1220     1.0150 h1         1 D66       0.053700
     24 H1A         -0.3850    -0.9230    -0.4160 h1         1 D66       0.053700
     25 H1B         -0.3030     0.8520    -0.5960 h1         1 D66       0.053700
     26 HN1          3.0000     2.9980     5.2600 hn         1 D66       0.475133
     27 HN1A         2.1950     1.5690     5.2600 hn         1 D66       0.475133
     28 HN2          6.0130     3.6150     5.6050 hn         1 D66       0.288500
     29 HO2          3.7030     0.0990     7.3340 ho         1 D66       0.395000
     30 H3           4.0320    -0.0580     0.3850 ha         1 D66       0.159500
     31 H4           5.1390     0.0140     2.5470 ha         1 D66       0.131500
     32 H6           3.3690    -0.4780     5.7690 hc         1 D66       0.078200
     33 H6A          4.9030    -0.5760     4.9770 hc         1 D66       0.078200
     34 H7           4.7450     1.9770     4.6910 hx         1 D66       0.121700
     35 H8           5.9970     0.9990     6.6170 h1         1 D66       0.101700
     36 H10          6.0190     5.1330     8.1560 h1         1 D66       0.107700
     37 H11          7.1440     4.7100     6.4550 hc         1 D66       0.088200
     38 H11A         6.9720     5.9400     5.4500 hc         1 D66       0.088200
     39 H12          8.3530     3.9780     6.7660 hc         1 D66      -0.005300
     40 H13          9.6090     5.1190     8.8370 hc         1 D66       0.039700
     41 H13A         8.2450     6.2150     8.7380 hc         1 D66       0.039700
     42 H13B         7.9300     4.5400     9.0450 hc         1 D66       0.039700
     43 H14         10.4860     5.7530     7.0200 hc         1 D66       0.039700
     44 H14A         9.4280     6.4940     5.7720 hc         1 D66       0.039700
     45 H14B        10.0580     4.8640     5.5750 hc         1 D66       0.039700
     46 H16          1.3300    -0.0110     4.5120 ha         1 D66       0.131500
     47 H17          0.2090     0.0370     2.3330 ha         1 D66       0.159500
     48 O4           3.8700     5.4140     6.0050 o          1 D66      -0.837300
     49 O5           4.6360     7.2320     7.0010 o          1 D66      -0.837300
     50 H131         2.8190     2.2010     6.6860 hn         1 D66       0.475133
@<TRIPOS>BOND
     1     3     1 1
     2     1    23 1
     3     1    24 1
     4     1    25 1
     5     2    12 1
     6     2    26 1
     7     2    27 1
     8     4     3 1
     9    22     4 ar
    10     7     4 ar
    11     5    15 1
    12     5    14 1
    13     5    28 1
    14     6    13 1
    15     6    29 1
    16     9     7 ar
    17     7    30 1
    18    14     8 2
    19    10     9 ar
    20     9    31 1
    21    20    48 1
    22    11    10 1
    23    10    21 ar
    24    20    49 1
    25    12    11 1
    26    11    32 1
    27    11    33 1
    28    13    12 1
    29    12    34 1
    30    13    14 1
    31    13    35 1
    32    16    15 1
    33    15    20 1
    34    15    36 1
    35    17    16 1
    36    16    37 1
    37    16    38 1
    38    19    17 1
    39    17    18 1
    40    17    39 1
    41    18    40 1
    42    18    41 1
    43    18    42 1
    44    19    43 1
    45    19    44 1
    46    19    45 1
    47    21    22 ar
    48    21    46 1
    49    22    47 1
    50    50     2 1
@<TRIPOS>SUBSTRUCTURE
     1 D66         1 TEMP              0 ****  ****    0 ROOT
