@<TRIPOS>MOLECULE
molecule
   37    39     1     0     0
SMALL
bcc


@<TRIPOS>ATOM
      1 C1           0.0000     0.0000     0.0000 ca         1 D67      -0.179000
      2 F1           0.0010    -0.6580     4.6750 f          1 D67      -0.224300
      3 N1           2.0890     0.0010    -1.2090 nu         1 D67      -0.681000
      4 C2           1.3890     0.0000     0.0000 ca         1 D67       0.205600
      5 F2          -1.9760    -0.6590     3.5300 f          1 D67      -0.224300
      6 N2           0.6330    -1.2460    -2.6270 na         1 D67      -0.009800
      7 C3           2.0800     0.0000     1.2060 ca         1 D67      -0.179000
      8 F3          -0.9870     1.3200     4.1020 f          1 D67      -0.224300
      9 N3           0.3290    -2.3820    -1.8680 nc         1 D67      -0.561100
     10 C4           1.3840     0.0000     2.3980 ca         1 D67      -0.040000
     11 F4          -0.0230    -5.3450    -1.8920 f          1 D67      -0.220300
     12 N4          -0.6940    -2.5330    -3.7590 nd         1 D67      -0.428300
     13 C5           0.0020     0.0010     2.3940 ca         1 D67      -0.214300
     14 F5          -1.8310    -4.2630    -1.0090 f          1 D67      -0.220300
     15 N5           0.0600    -0.4380    -4.7550 nc         1 D67      -0.678000
     16 C6          -0.6900     0.0010     1.1970 ca         1 D67      -0.040000
     17 C7           1.4100    -0.1450    -2.3990 cc         1 D67       0.295300
     18 C8           1.4990     0.8190    -3.3840 cd         1 D67      -0.337300
     19 C9           0.7980     0.6370    -4.5740 cd         1 D67       0.504600
     20 C10          0.8780     1.6820    -5.6560 c3         1 D67      -0.146400
     21 C11         -0.0310    -1.3830    -3.8130 cc         1 D67       0.469500
     22 C12         -0.4760    -3.1230    -2.5900 cd         1 D67       0.517300
     23 C13         -1.0580    -4.4450    -2.1610 c3         1 D67       0.429300
     24 C14         -1.9390    -5.0020    -3.2820 c3         1 D67      -0.123100
     25 C16         -0.7530     0.0010     3.6990 c3         1 D67       0.677200
     26 H1          -0.5420    -0.0000    -0.9380 ha         1 D67       0.140500
     27 HN1          3.0840     0.1020    -1.2100 hn         1 D67       0.469800
     28 H3           3.1630    -0.0000     1.2100 ha         1 D67       0.140500
     29 H4           1.9230     0.0000     3.3380 ha         1 D67       0.151500
     30 H6          -1.7730     0.0010     1.1970 ha         1 D67       0.151500
     31 H8           2.1070     1.7030    -3.2340 ha         1 D67       0.169000
     32 H10          0.5090     2.6260    -5.2750 hc         1 D67       0.065367
     33 H10A         0.2750     1.3730    -6.5020 hc         1 D67       0.065367
     34 H10B         1.9080     1.7980    -5.9710 hc         1 D67       0.065367
     35 H14         -2.3570    -5.9520    -2.9740 hc         1 D67       0.070700
     36 H14A        -1.3410    -5.1430    -4.1750 hc         1 D67       0.070700
     37 H14B        -2.7410    -4.3050    -3.4910 hc         1 D67       0.070700
@<TRIPOS>BOND
     1     4     1 ar
     2     1    16 ar
     3     1    26 1
     4    25     2 1
     5    17     3 1
     6     3     4 1
     7     3    27 1
     8     4     7 ar
     9    25     5 1
    10    21     6 1
    11     6    17 1
    12     6     9 1
    13     7    10 ar
    14     7    28 1
    15     8    25 1
    16    22     9 2
    17    10    13 ar
    18    10    29 1
    19    23    11 1
    20    21    12 2
    21    12    22 1
    22    16    13 ar
    23    13    25 1
    24    14    23 1
    25    15    19 2
    26    15    21 1
    27    16    30 1
    28    18    17 2
    29    19    18 1
    30    18    31 1
    31    20    19 1
    32    20    32 1
    33    20    33 1
    34    20    34 1
    35    22    23 1
    36    23    24 1
    37    24    35 1
    38    24    36 1
    39    24    37 1
@<TRIPOS>SUBSTRUCTURE
     1 D67         1 TEMP              0 ****  ****    0 ROOT
