@<TRIPOS>MOLECULE
molecule
   38    37     1     0     0
SMALL
bcc


@<TRIPOS>ATOM
      1 OE1          0.0000     0.0000     0.0000 o          1 D6E      -0.889300
      2 CD           1.2080     0.0000     0.0000 c          1 D6E       0.891600
      3 OE2          1.8790     0.0000     1.1630 o          1 D6E      -0.889300
      4 CG           1.9620    -0.0070    -1.3050 c3         1 D6E      -0.183400
      5 CB           0.9680    -0.0140    -2.4680 c3         1 D6E      -0.058400
      6 CA           1.7340    -0.0210    -3.7920 c3         1 D6E       0.024700
      7 C            0.7600    -0.1500    -4.9340 c          1 D6E       0.892600
      8 O            0.6980     0.7130    -5.7770 o          1 D6E      -0.878800
      9 OXT         -0.0400    -1.2250    -5.0170 o          1 D6E      -0.878800
     10 N            2.4840     1.2290    -3.9300 ns         1 D6E      -0.566900
     11 CAR          3.5860     1.2730    -4.7050 c          1 D6E       0.800100
     12 OAF          3.9570     0.2740    -5.2900 o          1 D6E      -0.684100
     13 NAN          4.2770     2.4230    -4.8320 ns         1 D6E      -0.591900
     14 CAU          5.4740     2.4700    -5.6730 c3         1 D6E       0.032700
     15 CAQ          6.6670     2.0110    -4.8760 c          1 D6E       0.884600
     16 OAI          6.5310     1.6780    -3.7220 o          1 D6E      -0.858800
     17 OAE          7.8820     1.9710    -5.4470 o          1 D6E      -0.858800
     18 CAL          5.7040     3.9040    -6.1540 c3         1 D6E      -0.070400
     19 CAS          4.5300     4.3420    -7.0340 c3         1 D6E      -0.082700
     20 CAB          4.6870     5.8200    -7.3950 c3         1 D6E      -0.085600
     21 CAA          4.5120     3.5030    -8.3140 c3         1 D6E      -0.085600
     22 H2           2.5850     0.8770    -1.3670 hc         1 D6E       0.033700
     23 H3           2.5850    -0.8920    -1.3570 hc         1 D6E       0.033700
     24 H4           0.3450     0.8710    -2.4160 hc         1 D6E       0.047200
     25 H5           0.3450    -0.8980    -2.4060 hc         1 D6E       0.047200
     26 H6           2.4210    -0.8580    -3.8070 h1         1 D6E       0.069700
     27 H8           2.1580     2.0610    -3.4780 hn         1 D6E       0.283500
     28 H9           3.9950     3.2350    -4.3180 hn         1 D6E       0.278500
     29 H10          5.3390     1.8200    -6.5290 h1         1 D6E       0.073700
     30 H12          6.6220     3.9490    -6.7280 hc         1 D6E       0.038200
     31 H13          5.7800     4.5640    -5.2990 hc         1 D6E       0.038200
     32 H14          3.6020     4.1980    -6.4940 hc         1 D6E       0.068700
     33 H15          5.5960     5.9580    -7.9680 hc         1 D6E       0.020700
     34 H16          3.8360     6.1390    -7.9850 hc         1 D6E       0.020700
     35 H17          4.7390     6.4100    -6.4880 hc         1 D6E       0.020700
     36 H18          5.5240     3.3820    -8.6810 hc         1 D6E       0.020700
     37 H19          4.0860     2.5290    -8.1020 hc         1 D6E       0.020700
     38 H20          3.9130     4.0030    -9.0650 hc         1 D6E       0.020700
@<TRIPOS>BOND
     1     8     7 1
     2     1     2 1
     3     9     7 1
     4     7     6 1
     5     2     3 1
     6     2     4 1
     7     4     5 1
     8     5     6 1
     9     6    10 1
    10    12    11 2
    11    10    11 1
    12    20    19 1
    13    11    13 1
    14    18    19 1
    15    18    14 1
    16    19    21 1
    17    13    14 1
    18    14    15 1
    19    15    16 1
    20    15    17 1
    21     4    22 1
    22     4    23 1
    23     5    24 1
    24     5    25 1
    25     6    26 1
    26    10    27 1
    27    13    28 1
    28    14    29 1
    29    18    30 1
    30    18    31 1
    31    19    32 1
    32    20    33 1
    33    20    34 1
    34    20    35 1
    35    21    36 1
    36    21    37 1
    37    21    38 1
@<TRIPOS>SUBSTRUCTURE
     1 D6E         1 TEMP              0 ****  ****    0 ROOT
