@<TRIPOS>MOLECULE
D6I
   53    52     1     0     0
SMALL
bcc


@<TRIPOS>ATOM
      1 C28         1.8480   -2.0280   -0.3100 c1        1 D6I      0.292000
      2 C27         7.0590   -1.7820   -0.8590 c2        1 D6I     -0.509000
      3 C29         2.7770   -1.5600    0.5010 c2        1 D6I     -0.503000
      4 C26         5.9900   -1.5920   -0.1470 c1        1 D6I      0.106000
      5 C9          9.2190    2.7280    9.8710 c3        1 D6I     -0.009000
      6 C10         8.0680    2.3950    9.0820 c1        1 D6I     -0.043000
      7 C16         4.9380    0.9580    5.6740 c2        1 D6I     -0.371000
      8 C13        10.7570    4.2280    8.6190 c1        1 D6I      0.020000
      9 C19         7.3400    0.1190    4.6840 c2        1 D6I      0.125000
     10 C22         0.3420   -0.5110    2.7730 c1        1 D6I      0.205000
     11 C24         2.6810   -0.9200    1.8020 c2        1 D6I      0.173000
     12 C25         3.8480   -0.5680    2.4380 c2        1 D6I     -0.119000
     13 C8         10.4120    3.0110    9.0230 c2        1 D6I     -0.086000
     14 C17         5.0320    0.2880    4.4080 c2        1 D6I      0.241000
     15 C11         7.1240    2.1180    8.3940 c1        1 D6I     -0.173000
     16 C15         6.1100    1.1930    6.4310 c2        1 D6I      0.280000
     17 C1         11.6810    0.2190    4.3970 c3        1 D6I     -0.141000
     18 C3         10.4260   -1.8290    4.4340 c3        1 D6I     -0.141000
     19 C5         11.8730    0.1440    7.3340 c3        1 D6I     -0.168000
     20 C4         11.3800   -1.0110    6.4730 c3        1 D6I     -0.080000
     21 C6         10.7780    1.1530    7.6200 c3        1 D6I     -0.020000
     22 N12        10.9790    5.3280    8.1220 n2        1 D6I     -0.148000
     23 N18         6.2880   -0.1300    3.9320 n2        1 D6I     -0.197000
     24 N20         7.3360    0.7620    5.9120 na        1 D6I     -0.247000
     25 N23         1.4300   -0.6940    2.3340 n2        1 D6I     -0.347000
     26 N21         3.9010    0.0690    3.6830 nh        1 D6I     -0.168000
     27 N14         6.0350    1.8200    7.6580 nh        1 D6I     -0.153000
     28 N2         10.8120   -0.6420    5.1760 n3        1 D6I     -0.289000
     29 H28         7.6380   -2.7230   -0.8620 ha        1 D6I      0.209500
     30 H27         7.4850   -1.0280   -1.5440 ha        1 D6I      0.209500
     31 H29         3.8340   -1.6770    0.1190 ha        1 D6I      0.248000
     32 H26         4.8190   -0.7900    1.9440 h4        1 D6I      0.217000
     33 H9          8.9770    3.6250   10.5110 hc        1 D6I      0.140000
     34 H10         9.4650    1.8690   10.5620 hc        1 D6I      0.140000
     35 H16         3.9630    1.2880    6.0610 ha        1 D6I      0.183000
     36 H13        11.5850    5.9930    8.5570 hn        1 D6I      0.220000
     37 H19         8.1960    0.9050    6.4130 hn        1 D6I      0.301000
     38 H22         3.0420    0.3780    4.0980 hn        1 D6I      0.261000
     39 H14         5.1430    2.1420    7.9800 hn        1 D6I      0.293000
     40 H11C       12.7070   -0.2130    4.2400 h1        1 D6I      0.079667
     41 H12C       11.7860    1.2030    4.9250 h1        1 D6I      0.079667
     42 H13C       11.2170    0.4020    3.3920 h1        1 D6I      0.079667
     43 H31C       11.2900   -2.5100    4.2030 h1        1 D6I      0.079667
     44 H32C        9.6740   -2.4060    5.0320 h1        1 D6I      0.079667
     45 H33C        9.9580   -1.5180    3.4620 h1        1 D6I      0.079667
     46 H51C       10.5700   -1.5590    7.0350 h1        1 D6I      0.083000
     47 H52C       12.2410   -0.2840    8.3060 hc        1 D6I      0.112500
     48 H41C       12.7420    0.6610    6.8510 hc        1 D6I      0.112500
     49 H42C       12.2470   -1.7260    6.3460 h1        1 D6I      0.083000
     50 H61C       10.5880    1.8170    6.7370 h1        1 D6I      0.061000
     51 H62C        9.8210    0.6460    7.9160 h1        1 D6I      0.061000
     52 H21         8.3430   -0.2190    4.3130 h5        1 D6I      0.248000
     53 O7         11.2440    1.9380    8.7300 os        1 D6I     -0.194000
@<TRIPOS>BOND
     1    1    3 1   
     2    2    4 1   
     3    2   29 1   
     4    2   30 1   
     5    3   11 1   
     6    3   31 1   
     7    5    6 1   
     8    5   13 1   
     9    5   33 1   
    10    5   34 1   
    11    6   15 1   
    12    7   14 1   
    13    7   16 1   
    14    7   35 1   
    15    8   13 1   
    16    8   22 1   
    17    9   23 1   
    18    9   24 1   
    19    9   52 1   
    20   10   25 1   
    21   11   12 1   
    22   11   25 1   
    23   12   26 1   
    24   12   32 1   
    25   13   53 1   
    26   14   23 1   
    27   14   26 1   
    28   15   27 1   
    29   16   24 1   
    30   16   27 1   
    31   17   28 1   
    32   17   40 1   
    33   17   41 1   
    34   17   42 1   
    35   18   28 1   
    36   18   43 1   
    37   18   44 1   
    38   18   45 1   
    39   19   20 1   
    40   19   21 1   
    41   19   47 1   
    42   19   48 1   
    43   20   28 1   
    44   20   46 1   
    45   20   49 1   
    46   21   50 1   
    47   21   51 1   
    48   21   53 1   
    49   22   36 1   
    50   24   37 1   
    51   26   38 1   
    52   27   39 1   
@<TRIPOS>SUBSTRUCTURE
     1 D6I         1 TEMP              0 ****  ****    0 ROOT
