@<TRIPOS>MOLECULE
molecule
   52    55     1     0     0
SMALL
bcc


@<TRIPOS>ATOM
      1 C28          0.0000     0.0000     0.0000 ca         1 D6I      -0.141000
      2 C27          1.3880     0.0000     0.0000 ca         1 D6I      -0.124000
      3 C29         -0.6960     0.0030     1.1760 ca         1 D6I      -0.076000
      4 C26          2.0870     0.0000     1.1900 ca         1 D6I      -0.101000
      5 C9           8.8860     1.2550     8.5330 ca         1 D6I      -0.116000
      6 C10          7.5370     1.0710     8.2880 ca         1 D6I      -0.206300
      7 C16          3.3270     0.0040     5.5760 ca         1 D6I      -0.489600
      8 C13          9.3160     0.5060     6.2990 ca         1 D6I       0.361200
      9 C19          5.3540    -0.0010     3.8180 ca         1 D6I       0.759900
     10 C22          0.6350     0.0060     4.4700 cc         1 D6I       0.436700
     11 C24         -0.0090     0.0040     2.3920 ca         1 D6I       0.085400
     12 C25          1.3950     0.0030     2.3930 ca         1 D6I      -0.072200
     13 C8           9.7920     0.9650     7.5150 ca         1 D6I       0.009800
     14 C17          3.0830     0.0030     4.2080 ca         1 D6I       0.605800
     15 C11          7.1340     0.6060     7.0410 ca         1 D6I       0.679200
     16 C15          4.6500     0.0020     6.0120 ca         1 D6I       0.780200
     17 C1          16.1800     0.0290     7.3090 c3         1 D6I       0.150100
     18 C3          16.6590     0.8720     5.0910 c3         1 D6I       0.150100
     19 C5          13.4430     1.0620     7.0300 c3         1 D6I      -0.082400
     20 C4          14.3680     0.7210     5.8600 c3         1 D6I       0.164800
     21 C6          11.9900     0.8130     6.6210 c3         1 D6I       0.132400
     22 N12          8.0220     0.3400     6.0970 nb         1 D6I      -0.635000
     23 N18          4.1160    -0.0000     3.3680 nb         1 D6I      -0.824000
     24 N20          5.6270    -0.0000     5.1070 nb         1 D6I      -0.788000
     25 N23         -0.4060     0.0050     3.6920 nd         1 D6I      -0.588100
     26 N21          1.7760     0.0030     3.7230 na         1 D6I      -0.180100
     27 N14          4.9460     0.0040     7.3670 nu         1 D6I      -1.008600
     28 N2          15.7640     0.9600     6.2520 n3         1 D6I      -0.729600
     29 H28         -0.5360    -0.0000    -0.9410 ha         1 D6I       0.131000
     30 H27          1.9260    -0.0020    -0.9400 ha         1 D6I       0.133000
     31 H29         -1.7800     0.0030     1.1650 ha         1 D6I       0.141000
     32 H26          3.1700     0.0000     1.1850 ha         1 D6I       0.159000
     33 H9           9.2300     1.6160     9.4950 ha         1 D6I       0.164000
     34 H10          6.8050     1.2860     9.0560 ha         1 D6I       0.152000
     35 H16          2.5090     0.0060     6.2860 ha         1 D6I       0.142000
     36 H13         10.0140     0.2780     5.5030 h4         1 D6I       0.034100
     37 H19          6.1720    -0.0040     3.1080 h5         1 D6I       0.063100
     38 H22          0.6020     0.0090     5.5530 h5         1 D6I       0.076800
     39 H14          4.5550     0.0210     8.2880 hn         1 D6I       0.487800
     40 H11C        15.6690    -0.9170     7.1790 h1         1 D6I       0.034033
     41 H12C        15.9260     0.4460     8.2770 h1         1 D6I       0.034033
     42 H13C        17.2500    -0.1270     7.2530 h1         1 D6I       0.034033
     43 H31C        16.3690     1.6110     4.3550 h1         1 D6I       0.034033
     44 H32C        17.6780     1.0570     5.4070 h1         1 D6I       0.034033
     45 H33C        16.5890    -0.1180     4.6560 h1         1 D6I       0.034033
     46 H51C        13.5700     2.1040     7.2990 hc         1 D6I       0.065700
     47 H52C        13.6910     0.4380     7.8800 hc         1 D6I       0.065700
     48 H41C        14.2410    -0.3210     5.5910 h1         1 D6I       0.034700
     49 H42C        14.1200     1.3460     5.0100 h1         1 D6I       0.034700
     50 H61C        11.8630    -0.2290     6.3530 h1         1 D6I       0.037700
     51 H62C        11.7420     1.4380     5.7710 h1         1 D6I       0.037700
     52 O7          11.1260     1.1320     7.7150 os         1 D6I      -0.318900
@<TRIPOS>BOND
     1     1     2 ar
     2     1     3 ar
     3     2     4 ar
     4     3    11 ar
     5     4    12 ar
     6     5     6 ar
     7     5    13 ar
     8     6    15 ar
     9     7    14 ar
    10     7    16 ar
    11     8    13 ar
    12     8    22 ar
    13     9    23 ar
    14     9    24 ar
    15    10    25 2
    16    10    26 1
    17    11    12 ar
    18    11    25 1
    19    12    26 1
    20    13    52 1
    21    14    23 ar
    22    14    26 1
    23    15    22 ar
    24    15    27 1
    25    16    24 ar
    26    16    27 1
    27    17    28 1
    28    18    28 1
    29    19    20 1
    30    19    21 1
    31    20    28 1
    32    21    52 1
    33     1    29 1
    34     2    30 1
    35     3    31 1
    36     4    32 1
    37     5    33 1
    38     6    34 1
    39     7    35 1
    40     8    36 1
    41     9    37 1
    42    10    38 1
    43    27    39 1
    44    17    40 1
    45    17    41 1
    46    17    42 1
    47    18    43 1
    48    18    44 1
    49    18    45 1
    50    19    46 1
    51    19    47 1
    52    20    48 1
    53    20    49 1
    54    21    50 1
    55    21    51 1
@<TRIPOS>SUBSTRUCTURE
     1 D6I         1 TEMP              0 ****  ****    0 ROOT
