@<TRIPOS>MOLECULE
molecule
   75    77     1     0     0
SMALL
bcc


@<TRIPOS>ATOM
      1 O3           0.0000     0.0000     0.0000 o          1 D6J      -0.611800
      2 S            1.4210     0.0000     0.0000 s6         1 D6J       1.329900
      3 O2           2.1540     0.0000     1.2170 o          1 D6J      -0.611800
      4 C22          2.0570    -1.2710    -1.1270 c3         1 D6J      -0.173300
      5 C23          1.8500    -2.6340    -0.5160 ca         1 D6J      -0.082300
      6 C28          0.6810    -3.3300    -0.7610 ca         1 D6J      -0.111000
      7 C27          0.4910    -4.5790    -0.2010 ca         1 D6J      -0.127000
      8 C26          1.4700    -5.1320     0.6050 ca         1 D6J      -0.115000
      9 C25          2.6380    -4.4350     0.8490 ca         1 D6J      -0.127000
     10 C24          2.8300    -3.1880     0.2850 ca         1 D6J      -0.111000
     11 N4           1.8290     1.4340    -0.7220 n7         1 D6J      -0.889100
     12 C14          1.2270     1.8050    -2.0050 c3         1 D6J       0.180500
     13 C15          2.2530     2.5650    -2.8480 c3         1 D6J      -0.044100
     14 C16          3.3910     1.6440    -3.2050 ca         1 D6J      -0.089300
     15 C21          3.3620     0.9370    -4.3920 ca         1 D6J      -0.127500
     16 C20          4.4070     0.0920    -4.7200 ca         1 D6J      -0.124000
     17 C19          5.4800    -0.0440    -3.8590 ca         1 D6J      -0.124000
     18 C18          5.5090     0.6640    -2.6720 ca         1 D6J      -0.124000
     19 C17          4.4660     1.5110    -2.3470 ca         1 D6J      -0.127500
     20 C13          0.0270     2.6840    -1.7620 c          1 D6J       0.651100
     21 O1          -0.1090     3.2440    -0.6950 o          1 D6J      -0.554100
     22 N3          -0.8960     2.8470    -2.7310 n          1 D6J      -0.472800
     23 C12         -2.0070     3.7810    -2.5330 c3         1 D6J       0.111300
     24 C2          -0.7880     2.0900    -3.9810 c3         1 D6J       0.037700
     25 C1          -2.0740     1.2920    -4.2060 c3         1 D6J      -0.097400
     26 C           -2.2190     0.2380    -3.1060 c3         1 D6J      -0.090100
     27 C3          -0.5810     3.0440    -5.1290 c          1 D6J       0.635100
     28 O           -0.5290     4.2390    -4.9230 o          1 D6J      -0.572100
     29 N           -0.4540     2.5700    -6.3840 ns         1 D6J      -0.597900
     30 C4          -0.2530     3.4980    -7.5000 c3         1 D6J       0.150300
     31 C5          -0.1420     2.7200    -8.7860 ca         1 D6J      -0.052300
     32 C11         -1.2790     2.4420    -9.5230 ca         1 D6J      -0.101500
     33 C10         -1.1840     1.7290   -10.7020 ca         1 D6J      -0.085500
     34 C8           0.0630     1.2900   -11.1490 ca         1 D6J      -0.193900
     35 C9           0.1720     0.5260   -12.4120 ce         1 D6J       0.541800
     36 N2           1.4040     0.0930   -12.8510 nz         1 D6J      -0.801600
     37 N1          -0.8970     0.2620   -13.1090 n2         1 D6J      -0.679100
     38 C7           1.2050     1.5740   -10.4010 ca         1 D6J      -0.085500
     39 C6           1.0970     2.2910    -9.2270 ca         1 D6J      -0.101500
     40 H221         3.1150    -1.1080    -1.2950 h1         1 D6J       0.096200
     41 H222         1.5290    -1.2140    -2.0710 h1         1 D6J       0.096200
     42 H4           2.4630     2.0600    -0.2670 hn         1 D6J       0.467800
     43 H28         -0.0670    -2.9150    -1.4250 ha         1 D6J       0.136000
     44 H24          3.8450    -2.8430     0.4440 ha         1 D6J       0.136000
     45 H27         -0.4260    -5.1230    -0.3900 ha         1 D6J       0.136500
     46 H26          1.3350    -6.1250     1.0170 ha         1 D6J       0.135000
     47 H25          3.4050    -4.8680     1.4790 ha         1 D6J       0.136500
     48 H14          0.9190     0.9100    -2.5320 h1         1 D6J       0.056700
     49 H151         1.7800     2.9240    -3.7550 hc         1 D6J       0.068700
     50 H152         2.6330     3.4070    -2.2820 hc         1 D6J       0.068700
     51 H21          2.5210     1.0450    -5.0660 ha         1 D6J       0.126500
     52 H17          4.4890     2.0660    -1.4170 ha         1 D6J       0.126500
     53 H20          4.3840    -0.4620    -5.6500 ha         1 D6J       0.132000
     54 H19          6.2980    -0.7070    -4.1150 ha         1 D6J       0.136000
     55 H18          6.3510     0.5580    -1.9990 ha         1 D6J       0.132000
     56 H121        -2.6350     3.7860    -3.4150 h1         1 D6J       0.050367
     57 H122        -1.6150     4.7770    -2.3640 h1         1 D6J       0.050367
     58 H123        -2.5910     3.4720    -1.6750 h1         1 D6J       0.050367
     59 H2           0.0540     1.4110    -3.9200 h1         1 D6J       0.075700
     60 H11C        -2.0310     0.8030    -5.1720 hc         1 D6J       0.048700
     61 H12C        -2.9250     1.9620    -4.1780 hc         1 D6J       0.048700
     62 HC1         -3.0340    -0.4320    -3.3530 hc         1 D6J       0.047367
     63 HC2         -2.4270     0.7270    -2.1620 hc         1 D6J       0.047367
     64 HC3         -1.2990    -0.3280    -3.0250 hc         1 D6J       0.047367
     65 H           -0.4700     1.5840    -6.5510 hn         1 D6J       0.314500
     66 H41C        -1.0950     4.1770    -7.5600 h1         1 D6J       0.075200
     67 H42C         0.6570     4.0630    -7.3400 h1         1 D6J       0.075200
     68 H11         -2.2460     2.7840    -9.1750 ha         1 D6J       0.167500
     69 H6           1.9840     2.5120    -8.6460 ha         1 D6J       0.167500
     70 H10         -2.0750     1.5120   -11.2780 ha         1 D6J       0.140500
     71 H7           2.1750     1.2370   -10.7440 ha         1 D6J       0.140500
     72 H21N         1.2910    -0.4350   -13.6940 hn         1 D6J       0.465800
     73 H22N         1.9910     0.8830   -13.0290 hn         1 D6J       0.465800
     74 H1          -0.8250    -0.2540   -13.9630 hn         1 D6J       0.435400
     75 H23          1.8240    -0.4850   -12.1510 hn         1 D6J       0.465800
@<TRIPOS>BOND
     1     1     2 2
     2     2     3 2
     3     2     4 1
     4     2    11 1
     5     4     5 1
     6     5     6 ar
     7     5    10 ar
     8     6     7 ar
     9     7     8 ar
    10     8     9 ar
    11     9    10 ar
    12    11    12 1
    13    12    13 1
    14    12    20 1
    15    13    14 1
    16    14    15 ar
    17    14    19 ar
    18    15    16 ar
    19    16    17 ar
    20    17    18 ar
    21    18    19 ar
    22    20    21 2
    23    20    22 1
    24    22    23 1
    25    22    24 1
    26    24    25 1
    27    24    27 1
    28    25    26 1
    29    27    28 2
    30    27    29 1
    31    29    30 1
    32    30    31 1
    33    31    32 ar
    34    31    39 ar
    35    32    33 ar
    36    33    34 ar
    37    34    35 1
    38    34    38 ar
    39    35    36 1
    40    35    37 2
    41    38    39 ar
    42     4    40 1
    43     4    41 1
    44    11    42 1
    45     6    43 1
    46    10    44 1
    47     7    45 1
    48     8    46 1
    49     9    47 1
    50    12    48 1
    51    13    49 1
    52    13    50 1
    53    15    51 1
    54    19    52 1
    55    16    53 1
    56    17    54 1
    57    18    55 1
    58    23    56 1
    59    23    57 1
    60    23    58 1
    61    24    59 1
    62    25    60 1
    63    25    61 1
    64    26    62 1
    65    26    63 1
    66    26    64 1
    67    29    65 1
    68    30    66 1
    69    30    67 1
    70    32    68 1
    71    39    69 1
    72    33    70 1
    73    38    71 1
    74    36    72 1
    75    36    73 1
    76    37    74 1
    77    75    36 1
@<TRIPOS>SUBSTRUCTURE
     1 D6J         1 TEMP              0 ****  ****    0 ROOT
