@<TRIPOS>MOLECULE
D6J
   75    77     1     0     0
SMALL
bcc


@<TRIPOS>ATOM
      1 O3           0.0000     0.0000     0.0000 o          1 D6J      -0.568300
      2 S            1.4210     0.0000     0.0000 s6         1 D6J       0.954900
      3 O2           2.1540     0.0000     1.2170 o          1 D6J      -0.568300
      4 C22          2.0570    -1.2710    -1.1270 c3         1 D6J       0.047700
      5 C23          1.8500    -2.6340    -0.5160 ca         1 D6J      -0.077300
      6 C28          0.6810    -3.3300    -0.7610 ca         1 D6J      -0.086500
      7 C27          0.4910    -4.5790    -0.2010 ca         1 D6J      -0.099000
      8 C26          1.4700    -5.1320     0.6050 ca         1 D6J      -0.090000
      9 C25          2.6380    -4.4350     0.8490 ca         1 D6J      -0.099000
     10 C24          2.8300    -3.1880     0.2850 ca         1 D6J      -0.086500
     11 N4           1.8290     1.4340    -0.7220 n7         1 D6J      -0.567100
     12 C14          1.2270     1.8050    -2.0050 c3         1 D6J       0.131500
     13 C15          2.2530     2.5650    -2.8480 c3         1 D6J       0.014900
     14 C16          3.3910     1.6440    -3.2050 ca         1 D6J      -0.096300
     15 C21          3.3620     0.9370    -4.3920 ca         1 D6J      -0.103000
     16 C20          4.4070     0.0920    -4.7200 ca         1 D6J      -0.095000
     17 C19          5.4800    -0.0440    -3.8590 ca         1 D6J      -0.097000
     18 C18          5.5090     0.6640    -2.6720 ca         1 D6J      -0.095000
     19 C17          4.4660     1.5110    -2.3470 ca         1 D6J      -0.103000
     20 C13          0.0270     2.6840    -1.7620 c          1 D6J       0.569100
     21 O1          -0.1090     3.2440    -0.6950 o          1 D6J      -0.593100
     22 N3          -0.8960     2.8470    -2.7310 n          1 D6J      -0.126800
     23 C12         -2.0070     3.7810    -2.5330 c3         1 D6J       0.093300
     24 C2          -0.7880     2.0900    -3.9810 c3         1 D6J      -0.058300
     25 C1          -2.0740     1.2920    -4.2060 c3         1 D6J      -0.044400
     26 C           -2.2190     0.2380    -3.1060 c3         1 D6J       0.001900
     27 C3          -0.5810     3.0440    -5.1290 c          1 D6J       0.555100
     28 O           -0.5290     4.2390    -4.9230 o          1 D6J      -0.610100
     29 N           -0.4540     2.5700    -6.3840 ns         1 D6J      -0.216900
     30 C4          -0.2530     3.4980    -7.5000 c3         1 D6J       0.101300
     31 C5          -0.1420     2.7200    -8.7860 ca         1 D6J      -0.059300
     32 C11         -1.2790     2.4420    -9.5230 ca         1 D6J      -0.054000
     33 C10         -1.1840     1.7290   -10.7020 ca         1 D6J      -0.072500
     34 C8           0.0630     1.2900   -11.1490 ca         1 D6J      -0.226900
     35 C9           0.1720     0.5260   -12.4120 ce         1 D6J       0.209800
     36 N2           1.4040     0.0930   -12.8510 nz         1 D6J       0.190400
     37 N1          -0.8970     0.2620   -13.1090 n2         1 D6J      -0.483100
     38 C7           1.2050     1.5740   -10.4010 ca         1 D6J      -0.072500
     39 C6           1.0970     2.2910    -9.2270 ca         1 D6J      -0.054000
     40 H221         3.1150    -1.1080    -1.2950 h1         1 D6J       0.064700
     41 H222         1.5290    -1.2140    -2.0710 h1         1 D6J       0.064700
     42 H4           2.4630     2.0600    -0.2670 hn         1 D6J       0.364800
     43 H28         -0.0690    -2.9140    -1.4220 ha         1 D6J       0.109500
     44 H24          3.8460    -2.8470     0.4450 ha         1 D6J       0.109500
     45 H27         -0.4260    -5.1230    -0.3900 ha         1 D6J       0.107000
     46 H26          1.3390    -6.1290     1.0100 ha         1 D6J       0.106000
     47 H25          3.4050    -4.8680     1.4800 ha         1 D6J       0.107000
     48 H14          0.9190     0.9100    -2.5320 h1         1 D6J       0.031700
     49 H151         2.6330     3.4070    -2.2820 hc         1 D6J       0.036200
     50 H152         1.7800     2.9240    -3.7550 hc         1 D6J       0.036200
     51 H21          2.5210     1.0450    -5.0660 ha         1 D6J       0.102500
     52 H17          4.4890     2.0660    -1.4170 ha         1 D6J       0.102500
     53 H20          4.3840    -0.4620    -5.6500 ha         1 D6J       0.103500
     54 H19          6.2980    -0.7070    -4.1150 ha         1 D6J       0.108000
     55 H18          6.3510     0.5580    -1.9990 ha         1 D6J       0.103500
     56 H121        -2.6260     3.4370    -1.7140 h1         1 D6J       0.018367
     57 H122        -2.6000     3.8330    -3.4380 h1         1 D6J       0.018367
     58 H123        -1.6150     4.7640    -2.3020 h1         1 D6J       0.018367
     59 H2           0.0540     1.4110    -3.9200 h1         1 D6J       0.058700
     60 H11C        -2.0310     0.8030    -5.1720 hc         1 D6J       0.019700
     61 H12C        -2.9250     1.9620    -4.1780 hc         1 D6J       0.019700
     62 HC1         -1.2990    -0.3280    -3.0250 hc         1 D6J       0.015367
     63 HC2         -3.0340    -0.4320    -3.3530 hc         1 D6J       0.015367
     64 HC3         -2.4270     0.7270    -2.1620 hc         1 D6J       0.015367
     65 H           -0.4680     1.5840    -6.5510 hn         1 D6J       0.177500
     66 H41C        -1.0950     4.1770    -7.5600 h1         1 D6J       0.042700
     67 H42C         0.6570     4.0630    -7.3400 h1         1 D6J       0.042700
     68 H11         -2.2460     2.7840    -9.1750 ha         1 D6J       0.133000
     69 H6           1.9840     2.5120    -8.6460 ha         1 D6J       0.133000
     70 H10         -2.0750     1.5120   -11.2780 ha         1 D6J       0.100500
     71 H7           2.1750     1.2370   -10.7440 ha         1 D6J       0.100500
     72 H21N         1.2950    -0.4060   -13.7120 hn         1 D6J       0.222133
     73 H22N         2.0020     0.8820   -12.9970 hn         1 D6J       0.222133
     74 H1          -1.7930     0.5760   -12.7910 hn         1 D6J       0.381400
     75 H23          1.8100    -0.5110   -12.1650 hn         1 D6J       0.222133
@<TRIPOS>BOND
     1     1     2 2   
     2     2     3 2   
     3     2     4 1   
     4     2    11 1   
     5     4     5 1   
     6     4    40 1   
     7     4    41 1   
     8     5     6 ar  
     9     5    10 ar  
    10     6     7 ar  
    11     6    43 1   
    12     7     8 ar  
    13     7    45 1   
    14     8     9 ar  
    15     8    46 1   
    16     9    10 ar  
    17     9    47 1   
    18    10    44 1   
    19    11    12 1   
    20    11    42 1   
    21    12    13 1   
    22    12    20 1   
    23    12    48 1   
    24    13    14 1   
    25    13    49 1   
    26    13    50 1   
    27    14    15 ar  
    28    14    19 ar  
    29    15    16 ar  
    30    15    51 1   
    31    16    17 ar  
    32    16    53 1   
    33    17    18 ar  
    34    17    54 1   
    35    18    19 ar  
    36    18    55 1   
    37    19    52 1   
    38    20    21 2   
    39    20    22 1   
    40    22    23 1   
    41    22    24 1   
    42    23    56 1   
    43    23    57 1   
    44    23    58 1   
    45    24    25 1   
    46    24    27 1   
    47    24    59 1   
    48    25    26 1   
    49    25    60 1   
    50    25    61 1   
    51    26    62 1   
    52    26    63 1   
    53    26    64 1   
    54    27    28 2   
    55    27    29 1   
    56    29    30 1   
    57    29    65 1   
    58    30    31 1   
    59    30    66 1   
    60    30    67 1   
    61    31    32 ar  
    62    31    39 ar  
    63    32    33 ar  
    64    32    68 1   
    65    33    34 ar  
    66    33    70 1   
    67    34    35 1   
    68    34    38 ar  
    69    35    36 1   
    70    35    37 2   
    71    36    72 1   
    72    36    73 1   
    73    36    75 1   
    74    37    74 1   
    75    38    39 ar  
    76    38    71 1   
    77    39    69 1   
@<TRIPOS>SUBSTRUCTURE
     1 D6J         1 TEMP              0 ****  ****    0 ROOT
