@<TRIPOS>MOLECULE
molecule
   24    24     1     0     0
SMALL
bcc


@<TRIPOS>ATOM
      1 CAA          0.0000     0.0000     0.0000 c3         1 D6K      -0.086100
      2 CAC          3.8380     2.5870    -1.3760 c3         1 D6K      -0.102100
      3 CAE          4.0350     0.0960    -1.4180 c3         1 D6K      -0.102100
      4 CAH          2.0440     0.0000     1.4440 c3         1 D6K      -0.150400
      5 CAI          1.5310     0.0000     0.0000 c3         1 D6K       0.144100
      6 CAK          3.4340     1.2900    -0.6720 c3         1 D6K       0.345600
      7 CAL          3.5710     0.1400     1.4290 c3         1 D6K       0.340900
      8 OAF          4.1510    -1.0170     0.8240 oh         1 D6K      -0.626800
      9 OAG          2.0090     1.1740    -0.6640 os         1 D6K      -0.431600
     10 OAJ          3.9220     1.3050     0.6760 os         1 D6K      -0.430600
     11 H1          -0.3610    -0.0150    -1.0210 hc         1 D6K       0.044033
     12 H2          -0.3610     0.8920     0.4980 hc         1 D6K       0.044033
     13 H3          -0.3610    -0.8770     0.5230 hc         1 D6K       0.044033
     14 H4           4.9180     2.6460    -1.4340 hc         1 D6K       0.052867
     15 H5           3.4600     3.4340    -0.8160 hc         1 D6K       0.052867
     16 H6           3.4210     2.6000    -2.3760 hc         1 D6K       0.052867
     17 H7           3.5560    -0.8170    -1.0850 hc         1 D6K       0.052867
     18 H8           3.8780     0.2190    -2.4830 hc         1 D6K       0.052867
     19 H9           5.0980     0.0400    -1.2150 hc         1 D6K       0.052867
     20 H11          1.7710    -0.9310     1.9250 hc         1 D6K       0.062700
     21 H12          1.8980    -0.8800    -0.5140 h1         1 D6K       0.052700
     22 H13          3.9330     0.2440     2.4450 h2         1 D6K       0.063700
     23 H14          4.6470    -1.4930     1.4690 ho         1 D6K       0.406000
     24 H10          1.6100     0.8340     1.9820 hc         1 D6K       0.062700
@<TRIPOS>BOND
     1     3     6 1
     2     8     7 1
     3     2     6 1
     4     6    10 1
     5     6     9 1
     6    10     7 1
     7     7     4 1
     8     9     5 1
     9     5     4 1
    10     5     1 1
    11     1    11 1
    12     1    12 1
    13     1    13 1
    14     2    14 1
    15     2    15 1
    16     2    16 1
    17     3    17 1
    18     3    18 1
    19     3    19 1
    20     4    24 1
    21     4    20 1
    22     5    21 1
    23     7    22 1
    24     8    23 1
@<TRIPOS>SUBSTRUCTURE
     1 D6K         1 TEMP              0 ****  ****    0 ROOT
