@<TRIPOS>MOLECULE
D6M
   64    63     1     0     0
SMALL
bcc


@<TRIPOS>ATOM
      1 O01          0.0000     0.0000     0.0000 o          1 D6M      -0.692100
      2 C02          1.2130     0.0000     0.0000 c          1 D6M       0.558100
      3 N03          1.8870     0.0000     1.1670 ns         1 D6M      -0.102900
      4 C04          1.1540    -0.0020     2.4360 c3         1 D6M      -0.111300
      5 C05          2.0310    -0.6130     3.5310 c3         1 D6M      -0.012400
      6 C06          2.2930    -2.0860     3.2130 c3         1 D6M      -0.142400
      7 C07          3.1570    -2.6870     4.2910 c          1 D6M       0.983600
      8 O08          3.5250    -2.0060     5.2200 o          1 D6M      -0.921800
      9 C09          0.7940     1.4130     2.8100 c          1 D6M       0.988600
     10 O10          1.1170     2.3290     2.0920 o          1 D6M      -0.911800
     11 O11          0.1160     1.6550     3.9420 o          1 D6M      -0.911800
     12 C12          1.9670    -0.0040    -1.3050 c3         1 D6M      -0.104400
     13 C13          0.9730    -0.0090    -2.4680 c3         1 D6M      -0.014400
     14 C14          1.7390    -0.0140    -3.7930 c3         1 D6M      -0.035400
     15 C15          0.7440    -0.0190    -4.9560 c3         1 D6M      -0.028400
     16 C16          1.5100    -0.0240    -6.2810 c3         1 D6M      -0.031400
     17 C17          0.5160    -0.0290    -7.4440 c3         1 D6M      -0.030400
     18 C18          1.2810    -0.0330    -8.7690 c3         1 D6M      -0.030400
     19 C19          0.2870    -0.0380    -9.9320 c3         1 D6M      -0.029400
     20 C20          1.0520    -0.0430   -11.2560 c3         1 D6M      -0.029400
     21 C21          0.0590    -0.0470   -12.4200 c3         1 D6M      -0.029400
     22 C22          0.8230    -0.0530   -13.7450 c3         1 D6M      -0.029400
     23 C23         -0.1700    -0.0580   -14.9070 c3         1 D6M      -0.029400
     24 C24          0.5950    -0.0630   -16.2330 c3         1 D6M      -0.030400
     25 C25         -0.3990    -0.0680   -17.3960 c3         1 D6M      -0.028400
     26 C26          0.3660    -0.0720   -18.7200 c3         1 D6M       0.005900
     27 OXT          3.5170    -3.9770     4.2210 o          1 D6M      -0.921800
     28 H03          2.8870     0.0420     1.1670 hn         1 D6M       0.153500
     29 H121         2.5890     0.8800    -1.3650 hc         1 D6M       0.015700
     30 H122         2.5900    -0.8890    -1.3590 hc         1 D6M       0.015700
     31 H04          0.2490    -0.5880     2.3290 h1         1 D6M       0.051700
     32 H051         1.5240    -0.5340     4.4850 hc         1 D6M       0.035700
     33 H052         2.9730    -0.0800     3.5770 hc         1 D6M       0.035700
     34 H061         1.3500    -2.6180     3.1670 hc         1 D6M      -0.001300
     35 H062         2.7990    -2.1650     2.2590 hc         1 D6M      -0.001300
     36 H131         0.3500     0.8760    -2.4150 hc         1 D6M       0.028700
     37 H132         0.3500    -0.8930    -2.4080 hc         1 D6M       0.028700
     38 H141         2.3610     0.8700    -3.8530 hc         1 D6M       0.007200
     39 H142         2.3620    -0.8990    -3.8460 hc         1 D6M       0.007200
     40 H151         0.1220    -0.9040    -4.8950 hc         1 D6M       0.015200
     41 H152         0.1210     0.8650    -4.9020 hc         1 D6M       0.015200
     42 H161         2.1330    -0.9090    -6.3350 hc         1 D6M       0.011700
     43 H162         2.1320     0.8600    -6.3420 hc         1 D6M       0.011700
     44 H171        -0.1070     0.8560    -7.3890 hc         1 D6M       0.014200
     45 H172        -0.1060    -0.9130    -7.3830 hc         1 D6M       0.014200
     46 H181         1.9030     0.8520    -8.8290 hc         1 D6M       0.012700
     47 H182         1.9050    -0.9170    -8.8230 hc         1 D6M       0.012700
     48 H191        -0.3360     0.8470    -9.8790 hc         1 D6M       0.014200
     49 H192        -0.3360    -0.9220    -9.8710 hc         1 D6M       0.014200
     50 H201         1.6750     0.8410   -11.3170 hc         1 D6M       0.013700
     51 H202         1.6750    -0.9280   -11.3100 hc         1 D6M       0.013700
     52 H211        -0.5640     0.8370   -12.3660 hc         1 D6M       0.014200
     53 H212        -0.5640    -0.9320   -12.3590 hc         1 D6M       0.014200
     54 H221         1.4460     0.8310   -13.8060 hc         1 D6M       0.013700
     55 H222         1.4460    -0.9380   -13.7990 hc         1 D6M       0.013700
     56 H231        -0.7930     0.8270   -14.8540 hc         1 D6M       0.014200
     57 H232        -0.7930    -0.9420   -14.8470 hc         1 D6M       0.014200
     58 H241         1.2180    -0.9470   -16.2860 hc         1 D6M       0.013700
     59 H242         1.2180     0.8220   -16.2940 hc         1 D6M       0.013700
     60 H251        -1.0210    -0.9520   -17.3360 hc         1 D6M       0.011700
     61 H252        -1.0230     0.8170   -17.3420 hc         1 D6M       0.011700
     62 H261        -0.3380    -0.0760   -19.5440 hc         1 D6M      -0.001633
     63 H262         0.9900    -0.9560   -18.7740 hc         1 D6M      -0.001633
     64 H263         0.9880     0.8130   -18.7810 hc         1 D6M      -0.001633
@<TRIPOS>BOND
     1     1     2 2   
     2     2     3 1   
     3     2    12 1   
     4     3     4 1   
     5     3    28 1   
     6     4     5 1   
     7     4     9 1   
     8     4    31 1   
     9     5     6 1   
    10     5    32 1   
    11     5    33 1   
    12     6     7 1   
    13     6    34 1   
    14     6    35 1   
    15     7     8 1   
    16     7    27 1   
    17     9    10 1   
    18     9    11 1   
    19    12    13 1   
    20    12    29 1   
    21    12    30 1   
    22    13    14 1   
    23    13    36 1   
    24    13    37 1   
    25    14    15 1   
    26    14    38 1   
    27    14    39 1   
    28    15    16 1   
    29    15    40 1   
    30    15    41 1   
    31    16    17 1   
    32    16    42 1   
    33    16    43 1   
    34    17    18 1   
    35    17    44 1   
    36    17    45 1   
    37    18    19 1   
    38    18    46 1   
    39    18    47 1   
    40    19    20 1   
    41    19    48 1   
    42    19    49 1   
    43    20    21 1   
    44    20    50 1   
    45    20    51 1   
    46    21    22 1   
    47    21    52 1   
    48    21    53 1   
    49    22    23 1   
    50    22    54 1   
    51    22    55 1   
    52    23    24 1   
    53    23    56 1   
    54    23    57 1   
    55    24    25 1   
    56    24    58 1   
    57    24    59 1   
    58    25    26 1   
    59    25    60 1   
    60    25    61 1   
    61    26    62 1   
    62    26    63 1   
    63    26    64 1   
@<TRIPOS>SUBSTRUCTURE
     1 D6M         1 TEMP              0 ****  ****    0 ROOT
