@<TRIPOS>MOLECULE
D6P
   28    27     1     0     0
SMALL
bcc


@<TRIPOS>ATOM
      1 C1          0.1180    0.5140    0.1940 c3        1 D6P      0.129400
      2 C2          1.4450   -0.1840   -0.0240 c3        1 D6P     -0.083400
      3 C3          2.3480   -0.0020    1.1980 c3        1 D6P      0.149100
      4 C4          3.6970   -0.7080    0.9890 c3        1 D6P      0.039100
      5 C5          4.7160   -0.4140    2.1660 c3        1 D6P      0.375000
      6 C6          5.0950    1.0530    2.1270 c2        1 D6P     -0.089200
      7 O1         -0.6820    0.3330   -0.9730 oh        1 D6P     -0.622800
      8 O3          1.6500   -0.5150    2.3210 oh        1 D6P     -0.677800
      9 O4          3.4780   -2.1110    0.9440 oh        1 D6P     -0.646800
     10 O5          4.2000   -0.8660    3.3080 o         1 D6P     -0.900500
     11 C7          6.0240    1.7350    2.7870 c2        1 D6P     -0.429600
     12 P           7.1820    1.3370    3.9230 p5        1 D6P      1.383000
     13 O1P         7.5220    2.5770    4.6830 o         1 D6P     -0.903000
     14 O2P         6.4120    0.3480    4.9750 oh        1 D6P     -0.818400
     15 O3P         8.2910    0.5570    3.3070 o         1 D6P     -0.903000
     16 H11        -0.4000    0.0780    1.0890 h1        1 D6P      0.024700
     17 H12         0.2710    1.6150    0.3620 h1        1 D6P      0.024700
     18 H21         1.9550    0.2360   -0.9270 hc        1 D6P      0.046700
     19 H22         1.2780   -1.2780   -0.1940 hc        1 D6P      0.046700
     20 H3          2.5220    1.0990    1.3660 h1        1 D6P      0.020700
     21 H4          4.1210   -0.4330   -0.0110 h1        1 D6P      0.022700
     22 H5          5.6490   -0.9920    1.8520 h1        1 D6P     -0.035300
     23 H6          4.4840    1.6240    1.3940 ha        1 D6P      0.032000
     24 HO1        -1.5610    0.6510   -0.7440 ho        1 D6P      0.372000
     25 HO3         2.3260   -0.6880    3.0120 ho        1 D6P      0.473000
     26 HO4         3.4960   -2.4000    1.8720 ho        1 D6P      0.424000
     27 HO5         5.7510   -0.2140    4.5740 ho        1 D6P      0.457000
     28 H7          6.0830    2.8170    2.5550 ha        1 D6P      0.093000
@<TRIPOS>BOND
     1    1    2 1   
     2    1    7 1   
     3    1   16 1   
     4    1   17 1   
     5    2    3 1   
     6    2   18 1   
     7    2   19 1   
     8    3    4 1   
     9    3    8 1   
    10    3   20 1   
    11    4    5 1   
    12    4    9 1   
    13    4   21 1   
    14    5    6 1   
    15    5   10 1   
    16    5   22 1   
    17    6   11 2   
    18    6   23 1   
    19    7   24 1   
    20    8   25 1   
    21    9   26 1   
    22   11   12 1   
    23   11   28 1   
    24   12   13 1   
    25   12   14 1   
    26   12   15 1   
    27   14   27 1   
@<TRIPOS>SUBSTRUCTURE
     1 D6P         1 TEMP              0 ****  ****    0 ROOT
