@<TRIPOS>MOLECULE
molecule
   28    27     1     0     0
SMALL
bcc


@<TRIPOS>ATOM
      1 C1           0.0000     0.0000     0.0000 c3         1 D6P       0.135400
      2 C2           1.5300     0.0000     0.0000 c3         1 D6P      -0.096400
      3 C3           2.0410     0.0000     1.4410 c3         1 D6P       0.131100
      4 C4           3.5700     0.0010     1.4420 c3         1 D6P       0.153100
      5 C5           4.0810     0.0000     2.8830 c3         1 D6P       0.164300
      6 C6           5.5870     0.0000     2.8830 c2         1 D6P      -0.268200
      7 O1          -0.4770     0.0000    -1.3470 oh         1 D6P      -0.616800
      8 O3           1.5640    -1.1660     2.1150 oh         1 D6P      -0.594800
      9 O4           4.0460    -1.1660     0.7680 oh         1 D6P      -0.593800
     10 O5           3.6050     1.1670     3.5570 oh         1 D6P      -0.622800
     11 C7           6.2430     0.9820     3.4490 c2         1 D6P      -0.182600
     12 P            8.0560     0.9820     3.4500 p5         1 D6P       1.043100
     13 O1P          8.5930     2.2960     2.6900 o          1 D6P      -0.911500
     14 O2P          8.5930     0.9830     4.9670 o          1 D6P      -0.911500
     15 O3P          8.5490    -0.2260     2.7520 o          1 D6P      -0.911500
     16 H11         -0.3610     0.8840     0.5110 h1         1 D6P       0.015700
     17 H12         -0.3610    -0.8850     0.5100 h1         1 D6P       0.015700
     18 H21          1.8910    -0.8840    -0.5110 hc         1 D6P       0.064700
     19 H22          1.8910     0.8840    -0.5110 hc         1 D6P       0.064700
     20 H3           1.6790     0.8840     1.9510 h1         1 D6P       0.040700
     21 H4           3.9310     0.8860     0.9310 h1         1 D6P       0.057700
     22 H5           3.7200    -0.8850     3.3930 h1         1 D6P       0.023700
     23 H6           6.1290    -0.8120     2.4140 ha         1 D6P       0.157000
     24 HO1         -1.4180     0.0500    -1.3480 ho         1 D6P       0.384000
     25 HO3          0.9720    -0.9120     2.8040 ho         1 D6P       0.379000
     26 HO4          4.6110    -0.9100     0.0570 ho         1 D6P       0.403000
     27 HO5          3.3850     0.9480     4.4480 ho         1 D6P       0.388000
     28 H7           5.7010     1.7950     3.9190 ha         1 D6P       0.090000
@<TRIPOS>BOND
     1     1     2 1
     2     1     7 1
     3     1    16 1
     4     1    17 1
     5     2     3 1
     6     2    18 1
     7     2    19 1
     8     3     4 1
     9     3     8 1
    10     3    20 1
    11     4     5 1
    12     4     9 1
    13     4    21 1
    14     5     6 1
    15     5    10 1
    16     5    22 1
    17     6    11 2
    18     6    23 1
    19     7    24 1
    20     8    25 1
    21     9    26 1
    22    10    27 1
    23    11    12 1
    24    11    28 1
    25    12    13 1
    26    12    14 1
    27    12    15 1
@<TRIPOS>SUBSTRUCTURE
     1 D6P         1 TEMP              0 ****  ****    0 ROOT
