@<TRIPOS>MOLECULE
molecule
   56    60     1     0     0
SMALL
bcc


@<TRIPOS>ATOM
      1 N3           0.0000     0.0000     0.0000 nb         1 D6Q      -0.723000
      2 C4           1.3290     0.0000     0.0000 ca         1 D6Q       0.496800
      3 C7           3.4570    -0.0000     0.8700 cc         1 D6Q       0.389800
      4 C8           2.0400     0.0000     1.2190 ca         1 D6Q      -0.383200
      5 N12         -0.6030     0.9080     4.5730 n          1 D6Q      -0.480800
      6 C13         -1.4390     0.9710     5.7790 c3         1 D6Q       0.094000
      7 C15         -0.7730     3.3710     5.9360 c3         1 D6Q      -0.081700
      8 C17          0.5210     1.8450     4.4400 c3         1 D6Q       0.094000
      9 C21          0.1500     3.0830     7.0950 c          1 D6Q       0.728500
     10 C24          2.3320     4.8490     8.7610 c          1 D6Q       0.642100
     11 C28          5.3850     5.6990    10.7060 c3         1 D6Q       0.601900
     12 C1          -0.0600     0.0020     2.3660 ca         1 D6Q      -0.311900
     13 C14         -1.9540     2.4050     5.9470 c3         1 D6Q      -0.077400
     14 C16         -0.0050     3.2730     4.6160 c3         1 D6Q      -0.077400
     15 C18         -1.2450     4.7840     6.1720 ca         1 D6Q      -0.157300
     16 C19         -0.6320     5.2040     7.3460 ca         1 D6Q       0.078600
     17 C2          -0.6910     0.0020     1.1150 ca         1 D6Q       0.518200
     18 C27          4.5640     5.5690     9.4210 c3         1 D6Q       0.068000
     19 C32         -0.8870     6.4910     7.8170 ca         1 D6Q      -0.146000
     20 C33         -1.7370     7.3290     7.1260 ca         1 D6Q      -0.108000
     21 C34         -2.3430     6.9010     5.9580 ca         1 D6Q       0.074900
     22 C35         -2.0950     5.6210     5.4820 ca         1 D6Q       0.155900
     23 C9           1.3340     0.0000     2.4240 ca         1 D6Q      -0.002000
     24 F29          6.6550     6.1970    10.3990 f          1 D6Q      -0.220967
     25 F30          4.7400     6.5760    11.5850 f          1 D6Q      -0.220967
     26 F31          5.5090     4.4430    11.3090 f          1 D6Q      -0.220967
     27 F36         -2.6830     5.1970     4.3410 f          1 D6Q      -0.120900
     28 F37         -3.1750     7.7250     5.2850 f          1 D6Q      -0.122900
     29 N20          0.1770     4.1890     7.8600 n          1 D6Q      -0.351000
     30 N26          3.2330     5.0470     9.7430 ns         1 D6Q      -0.587900
     31 N5           2.2660    -0.0010    -0.9960 na         1 D6Q      -0.145800
     32 N6           3.5430    -0.0010    -0.4290 nd         1 D6Q      -0.486100
     33 O22          0.7540     2.0500     7.2980 o          1 D6Q      -0.597500
     34 O25          2.6220     5.1030     7.6100 o          1 D6Q      -0.582100
     35 H1           4.2870    -0.0000     1.5670 h4         1 D6Q       0.066800
     36 H2          -0.8480     0.6950     6.6450 h1         1 D6Q       0.073700
     37 H3          -2.2780     0.2940     5.6750 h1         1 D6Q       0.073700
     38 H4           1.2600     1.6340     5.2030 h1         1 D6Q       0.073700
     39 H5           0.9650     1.7410     3.4570 h1         1 D6Q       0.073700
     40 H6          -2.6240     2.6440     5.1300 hc         1 D6Q       0.066200
     41 H7          -2.4810     2.4900     6.8900 hc         1 D6Q       0.066200
     42 H8           0.8290     3.9640     4.6320 hc         1 D6Q       0.066200
     43 H9          -0.6670     3.5170     3.7940 hc         1 D6Q       0.066200
     44 H10         -1.7740     0.0030     1.0670 h4         1 D6Q       0.045100
     45 H11          1.0600     3.3400     9.5570 h1         1 D6Q       0.085700
     46 H12          0.4640     4.9910     9.7710 h1         1 D6Q       0.085700
     47 H13          5.0630     4.8900     8.7400 h1         1 D6Q       0.091700
     48 H14          4.4670     6.5420     8.9540 h1         1 D6Q       0.091700
     49 H15         -0.4160     6.8340     8.7310 ha         1 D6Q       0.141000
     50 H16         -1.9300     8.3280     7.4990 ha         1 D6Q       0.159000
     51 H17          1.8380    -0.2640     3.3460 ha         1 D6Q       0.151000
     52 H18          2.9980     4.8260    10.6900 hn         1 D6Q       0.327500
     53 H19          2.0680    -0.0010    -1.9770 hn         1 D6Q       0.343700
     54 C10         -0.8590     0.0040     3.6070 c          1 D6Q       0.684700
     55 C23          0.9630     4.3130     9.0900 c3         1 D6Q       0.037000
     56 O11         -1.7480    -0.8110     3.7590 o          1 D6Q      -0.605100
@<TRIPOS>BOND
     1    32     3 2
     2    32    31 1
     3     3     4 1
     4    31     2 1
     5    28    21 1
     6     4     2 ar
     7     4    23 ar
     8     2     1 ar
     9    27    22 1
    10    23    12 ar
    11    21    22 ar
    12    21    20 ar
    13     1    17 ar
    14    22    15 ar
    15    12    17 ar
    16    12    54 1
    17    20    19 ar
    18    56    54 2
    19    54     5 1
    20    15     7 1
    21    15    16 ar
    22    14     7 1
    23    14     8 1
    24    19    16 ar
    25    13     7 1
    26    13     6 1
    27     7     9 1
    28     5     8 1
    29     5     6 1
    30    16    29 1
    31     9    29 1
    32     9    33 2
    33    29    55 1
    34    34    10 2
    35    55    10 1
    36    10    30 1
    37    30    18 1
    38    18    11 1
    39    25    11 1
    40    11    26 1
    41    11    24 1
    42     3    35 1
    43     6    36 1
    44     6    37 1
    45     8    38 1
    46     8    39 1
    47    13    40 1
    48    13    41 1
    49    14    42 1
    50    14    43 1
    51    17    44 1
    52    55    45 1
    53    55    46 1
    54    18    47 1
    55    18    48 1
    56    19    49 1
    57    20    50 1
    58    23    51 1
    59    30    52 1
    60    31    53 1
@<TRIPOS>SUBSTRUCTURE
     1 D6Q         1 TEMP              0 ****  ****    0 ROOT
