@<TRIPOS>MOLECULE
D6Q
   56    60     1     0     0
SMALL
bcc


@<TRIPOS>ATOM
      1 N3           0.0000     0.0000     0.0000 nb         1 D6Q      -0.596000
      2 C4           1.3290     0.0000     0.0000 ca         1 D6Q       0.283800
      3 C7           3.4570    -0.0000     0.8700 cc         1 D6Q       0.452800
      4 C8           2.0400     0.0000     1.2190 ca         1 D6Q      -0.396200
      5 N12         -0.6030     0.9080     4.5730 n          1 D6Q      -0.131800
      6 C13         -1.4390     0.9710     5.7790 c3         1 D6Q       0.017500
      7 C15         -0.7730     3.3710     5.9360 c3         1 D6Q      -0.075700
      8 C17          0.5210     1.8450     4.4400 c3         1 D6Q       0.017500
      9 C21          0.1500     3.0830     7.0950 c          1 D6Q       0.639500
     10 C24          2.3320     4.8490     8.7610 c          1 D6Q       0.557100
     11 C28          5.3850     5.6990    10.7060 c3         1 D6Q       0.558900
     12 C1          -0.0600     0.0020     2.3660 ca         1 D6Q      -0.311900
     13 C14         -1.9540     2.4050     5.9470 c3         1 D6Q      -0.020400
     14 C16         -0.0050     3.2730     4.6160 c3         1 D6Q      -0.020400
     15 C18         -1.2450     4.7840     6.1720 ca         1 D6Q      -0.154300
     16 C19         -0.6320     5.2040     7.3460 ca         1 D6Q      -0.060400
     17 C2          -0.6910     0.0020     1.1150 ca         1 D6Q       0.496200
     18 C27          4.5640     5.5690     9.4210 c3         1 D6Q      -0.007000
     19 C32         -0.8870     6.4910     7.8170 ca         1 D6Q      -0.109000
     20 C33         -1.7370     7.3290     7.1260 ca         1 D6Q      -0.074000
     21 C34         -2.3430     6.9010     5.9580 ca         1 D6Q       0.058900
     22 C35         -2.0950     5.6210     5.4820 ca         1 D6Q       0.147900
     23 C9           1.3340     0.0000     2.4240 ca         1 D6Q       0.034000
     24 F29          6.6550     6.1970    10.3990 f          1 D6Q      -0.201633
     25 F30          4.7400     6.5760    11.5850 f          1 D6Q      -0.201633
     26 F31          5.5090     4.4430    11.3090 f          1 D6Q      -0.201633
     27 F36         -2.6830     5.1970     4.3410 f          1 D6Q      -0.112900
     28 F37         -3.1750     7.7250     5.2850 f          1 D6Q      -0.111900
     29 N20          0.1770     4.1890     7.8600 n          1 D6Q       0.052000
     30 N26          3.2330     5.0470     9.7430 ns         1 D6Q      -0.185900
     31 N5           2.2660    -0.0010    -0.9960 na         1 D6Q       0.324200
     32 N6           3.5430    -0.0010    -0.4290 nd         1 D6Q      -0.628100
     33 O22          0.7540     2.0500     7.2980 o          1 D6Q      -0.638500
     34 O25          2.6220     5.1030     7.6100 o          1 D6Q      -0.626100
     35 H1           4.2870    -0.0000     1.5670 h4         1 D6Q       0.016800
     36 H2          -0.8480     0.6950     6.6450 h1         1 D6Q       0.052200
     37 H3          -2.2780     0.2940     5.6750 h1         1 D6Q       0.052200
     38 H4           1.2600     1.6340     5.2030 h1         1 D6Q       0.052200
     39 H5           0.9650     1.7410     3.4570 h1         1 D6Q       0.052200
     40 H6          -2.6240     2.6440     5.1300 hc         1 D6Q       0.034450
     41 H7          -2.4810     2.4900     6.8900 hc         1 D6Q       0.034450
     42 H8           0.8290     3.9640     4.6320 hc         1 D6Q       0.034450
     43 H9          -0.6670     3.5170     3.7940 hc         1 D6Q       0.034450
     44 H10         -1.7740     0.0030     1.0670 h4         1 D6Q      -0.005900
     45 H11          1.0600     3.3400     9.5570 h1         1 D6Q       0.051700
     46 H12          0.4640     4.9910     9.7710 h1         1 D6Q       0.051700
     47 H13          5.0630     4.8900     8.7400 h1         1 D6Q       0.063700
     48 H14          4.4670     6.5420     8.9540 h1         1 D6Q       0.063700
     49 H15         -0.4160     6.8340     8.7310 ha         1 D6Q       0.112000
     50 H16         -1.9300     8.3280     7.4990 ha         1 D6Q       0.126000
     51 H17          1.8380    -0.2640     3.3460 ha         1 D6Q       0.118000
     52 H18          2.9980     4.8260    10.6900 hn         1 D6Q       0.185500
     53 H19          2.0680    -0.0010    -1.9770 hn         1 D6Q       0.159700
     54 C10         -0.8590     0.0040     3.6070 c          1 D6Q       0.618700
     55 C23          0.9630     4.3130     9.0900 c3         1 D6Q      -0.029000
     56 O11         -1.7480    -0.8110     3.7590 o          1 D6Q      -0.647100
@<TRIPOS>BOND
     1     1     2 ar  
     2     1    17 ar  
     3     2     4 ar  
     4     2    31 1   
     5     3     4 1   
     6     3    32 2   
     7     3    35 1   
     8     4    23 ar  
     9     5     6 1   
    10     5     8 1   
    11     5    54 1   
    12     6    13 1   
    13     6    36 1   
    14     6    37 1   
    15     7     9 1   
    16     7    13 1   
    17     7    14 1   
    18     7    15 1   
    19     8    14 1   
    20     8    38 1   
    21     8    39 1   
    22     9    29 1   
    23     9    33 2   
    24    10    30 1   
    25    10    34 2   
    26    10    55 1   
    27    11    18 1   
    28    11    24 1   
    29    11    25 1   
    30    11    26 1   
    31    12    17 ar  
    32    12    23 ar  
    33    12    54 1   
    34    13    40 1   
    35    13    41 1   
    36    14    42 1   
    37    14    43 1   
    38    15    16 ar  
    39    15    22 ar  
    40    16    19 ar  
    41    16    29 1   
    42    17    44 1   
    43    18    30 1   
    44    18    47 1   
    45    18    48 1   
    46    19    20 ar  
    47    19    49 1   
    48    20    21 ar  
    49    20    50 1   
    50    21    22 ar  
    51    21    28 1   
    52    22    27 1   
    53    23    51 1   
    54    29    55 1   
    55    30    52 1   
    56    31    32 1   
    57    31    53 1   
    58    45    55 1   
    59    46    55 1   
    60    54    56 2   
@<TRIPOS>SUBSTRUCTURE
     1 D6Q         1 TEMP              0 ****  ****    0 ROOT
