@<TRIPOS>MOLECULE
molecule
  109   115     1     0     0
SMALL
bcc


@<TRIPOS>ATOM
      1 C1           0.0000     0.0000     0.0000 ca         1 D6T      -0.071000
      2 C2           1.4010     0.0000     0.0000 ca         1 D6T      -0.221600
      3 C3           2.1000     0.0000     1.2220 ca         1 D6T       0.126600
      4 C4           1.3950    -0.0010     2.4150 ca         1 D6T      -0.125000
      5 C11          5.6360    -0.5740     2.2740 ca         1 D6T       0.388800
      6 C12          7.6090     0.2810     1.4280 ca         1 D6T       0.412600
      7 C13          8.3540    -0.4010     2.4250 ca         1 D6T      -0.139300
      8 C14          7.6730    -1.1990     3.3650 ca         1 D6T      -0.089000
      9 C15          6.3130    -1.2780     3.2800 ca         1 D6T      -0.202300
     10 C16         -0.7530    -0.0030     3.6720 cc         1 D6T       0.302800
     11 C17         -2.1100    -0.0040     3.7930 cd         1 D6T      -0.206600
     12 C18         -3.6560    -0.0050     5.7110 ca         1 D6T       0.008800
     13 C19         -3.7780    -0.0060     7.0940 ca         1 D6T      -0.128000
     14 C20         -5.0330    -0.0020     7.6740 ca         1 D6T      -0.112000
     15 C21         -6.1630     0.0040     6.8790 ca         1 D6T      -0.119300
     16 C22         -6.0450     0.0030     5.5020 ca         1 D6T      -0.112000
     17 C23         -4.7940    -0.0010     4.9160 ca         1 D6T      -0.128000
     18 C24         -7.5300     0.0080     7.5160 c3         1 D6T      -0.016100
     19 C25         -7.9870     1.4520     7.7320 c3         1 D6T       0.174800
     20 C26         -8.7610    -0.2480    10.2050 c3         1 D6T       0.205100
     21 C27        -10.0760    -0.2680    10.9400 ca         1 D6T      -0.080300
     22 C28        -11.1260     0.5480    10.5750 ca         1 D6T      -0.062300
     23 C29        -11.0180     1.5020     9.4120 c3         1 D6T      -0.053100
     24 C30         -9.5490     1.7080     9.0400 c3         1 D6T       0.110800
     25 C31        -10.2180    -1.1380    12.0110 ca         1 D6T      -0.190000
     26 C32        -11.4060    -1.1910    12.7180 ca         1 D6T       0.121100
     27 C33        -12.4640    -0.3630    12.3510 ca         1 D6T       0.117100
     28 C34        -12.3180     0.5010    11.2810 ca         1 D6T      -0.191000
     29 C35        -14.6770     0.4700    12.6050 c3         1 D6T       0.126700
     30 C36          8.2930     1.0720     0.4850 ca         1 D6T      -0.156300
     31 C37          9.6490     1.1710     0.5440 ca         1 D6T      -0.123000
     32 C38         10.3770     0.4990     1.5250 ca         1 D6T      -0.117000
     33 C39          9.7530    -0.2740     2.4540 ca         1 D6T      -0.116000
     34 C40        -10.4110    -2.8620    14.0860 c3         1 D6T       0.140400
     35 C41        -10.7470    -3.7510    15.2850 c3         1 D6T       0.141400
     36 C42        -12.1770    -5.5440    15.9800 c3         1 D6T       0.142400
     37 C43        -13.2880    -6.4720    15.4840 c3         1 D6T       0.141400
     38 C44        -13.7390    -8.2310    13.9190 c3         1 D6T       0.141400
     39 C45        -13.0840    -9.0830    12.8300 c3         1 D6T       0.140400
     40 C46        -11.3920   -10.7450    12.4770 c3         1 D6T       0.129700
     41 C5           0.0020    -0.0020     2.3970 ca         1 D6T      -0.056500
     42 C6          -0.6860    -0.0010     1.1800 ca         1 D6T      -0.162000
     43 C7           2.1360     0.0010    -1.2670 c          1 D6T       0.586700
     44 C8           1.3890    -0.1120    -2.5710 c3         1 D6T      -0.179400
     45 C9           2.3850    -0.0870    -3.7320 c3         1 D6T      -0.082100
     46 N1           3.4910     0.0010     1.2330 ns         1 D6T      -0.451100
     47 N2           6.2820     0.1660     1.3940 nb         1 D6T      -0.664000
     48 N3          -2.3850    -0.0040     5.1190 na         1 D6T       0.150300
     49 N4          -1.1510    -0.0040     5.7840 nd         1 D6T      -0.177800
     50 N5          -0.2140     0.0030     4.9010 nc         1 D6T      -0.315000
     51 N6          -8.9150     0.3880     8.8930 n3         1 D6T      -0.735600
     52 O1           3.3460     0.0930    -1.2670 o          1 D6T      -0.544100
     53 O2           3.5490    -1.3510     2.9930 o          1 D6T      -0.589100
     54 O4         -11.5400    -2.0450    13.7670 os         1 D6T      -0.303900
     55 O5         -11.7860    -4.6630    14.9250 os         1 D6T      -0.407600
     56 O6         -12.7760    -7.3210    14.4540 os         1 D6T      -0.409600
     57 O7         -12.0700    -9.9050    13.4130 os         1 D6T      -0.421600
     58 H1          -0.5400     0.0000    -0.9390 ha         1 D6T       0.134000
     59 H2           1.9260    -0.0010     3.3590 ha         1 D6T       0.184000
     60 H3           8.2150    -1.7340     4.1360 ha         1 D6T       0.145000
     61 H4           5.7680    -1.9480     3.9330 ha         1 D6T       0.165000
     62 H5          -2.8210     0.1770     2.9950 h4         1 D6T       0.185000
     63 H6          -2.8920    -0.0100     7.7170 ha         1 D6T       0.147500
     64 H7          -5.1300    -0.0020     8.7530 ha         1 D6T       0.139000
     65 H8          -6.9330     0.0070     4.8820 ha         1 D6T       0.139000
     66 H9          -4.7010    -0.0010     3.8370 ha         1 D6T       0.147500
     67 H10         -7.4860    -0.5040     8.4690 hc         1 D6T       0.074200
     68 H11         -8.2320    -0.5000     6.8660 hc         1 D6T       0.074200
     69 H12         -8.0310     1.9630     6.7780 h1         1 D6T       0.068700
     70 H13         -7.2840     1.9590     8.3820 h1         1 D6T       0.068700
     71 H14         -8.0490     0.3260    10.7860 h1         1 D6T       0.048700
     72 H15        -11.4550     2.4540     9.6880 hc         1 D6T       0.050700
     73 H16         -9.4960     2.2320     8.0930 h1         1 D6T       0.053200
     74 H17         -9.3940    -1.7810    12.2950 ha         1 D6T       0.138000
     75 H18        -13.1400     1.1460    10.9930 ha         1 D6T       0.139000
     76 H19        -14.3370     1.4970    12.6740 h1         1 D6T       0.039367
     77 H20        -15.5090     0.3200    13.2820 h1         1 D6T       0.039367
     78 H21        -14.9940     0.2620    11.5900 h1         1 D6T       0.039367
     79 H22          7.7420     1.6010    -0.2840 ha         1 D6T       0.151000
     80 H23         10.1710     1.7800    -0.1850 ha         1 D6T       0.135000
     81 H24         11.4560     0.5950     1.5480 ha         1 D6T       0.132000
     82 H25         10.3310    -0.7900     3.2110 ha         1 D6T       0.136000
     83 H26        -10.1630    -3.4840    13.2350 h1         1 D6T       0.043700
     84 H27         -9.5660    -2.2300    14.3310 h1         1 D6T       0.043700
     85 H28         -9.8650    -4.3060    15.5820 h1         1 D6T       0.034700
     86 H29        -11.0790    -3.1330    16.1110 h1         1 D6T       0.034700
     87 H30        -12.5400    -4.9630    16.8190 h1         1 D6T       0.032700
     88 H31        -11.3250    -6.1360    16.2920 h1         1 D6T       0.032700
     89 H32        -14.1050    -5.8800    15.0910 h1         1 D6T       0.032700
     90 H33        -13.6460    -7.0790    16.3070 h1         1 D6T       0.032700
     91 H34        -14.1060    -8.8750    14.7090 h1         1 D6T       0.031200
     92 H35        -14.5650    -7.6740    13.4930 h1         1 D6T       0.031200
     93 H36        -13.8330    -9.7110    12.3630 h1         1 D6T       0.033200
     94 H37        -12.6390    -8.4360    12.0840 h1         1 D6T       0.033200
     95 H38        -10.6250   -11.3120    12.9900 h1         1 D6T       0.028367
     96 H39        -10.9360   -10.1340    11.7080 h1         1 D6T       0.028367
     97 H40        -12.1020   -11.4260    12.0240 h1         1 D6T       0.028367
     98 H41         -1.7690    -0.0020     1.1730 ha         1 D6T       0.126000
     99 H42          0.8350    -1.0430    -2.5910 hc         1 D6T       0.063700
    100 H43          0.7010     0.7190    -2.6670 hc         1 D6T       0.063700
    101 H44          3.0460    -0.9420    -3.6600 hc         1 D6T       0.042367
    102 H45          2.9670     0.8260    -3.6890 hc         1 D6T       0.042367
    103 H46          1.8460    -0.1260    -4.6710 hc         1 D6T       0.042367
    104 H47          3.9950     0.5390     0.5570 hn         1 D6T       0.373500
    105 H48         -8.4330    -1.2700    10.0570 h1         1 D6T       0.048700
    106 H49        -11.5480     1.0910     8.5620 hc         1 D6T       0.050700
    107 H50         -9.0560     2.2490     9.8380 h1         1 D6T       0.053200
    108 O3         -13.6360    -0.4060    13.0400 os         1 D6T      -0.308900
    109 C10          4.1580    -0.6700     2.1930 c          1 D6T       0.573600
@<TRIPOS>BOND
     1    32    33 ar
     2    32    31 ar
     3    33     7 ar
     4    31    30 ar
     5    40    57 1
     6    57    39 1
     7     7     8 ar
     8     7     6 ar
     9    30     6 ar
    10     8     9 ar
    11    39    38 1
    12     6    47 ar
    13    38    56 1
    14     9     5 ar
    15    47     5 ar
    16     5   109 1
    17    56    37 1
    18    37    36 1
    19   109    53 2
    20   109    46 1
    21    46     3 1
    22    36    55 1
    23    52    43 2
    24    55    35 1
    25     3     4 ar
    26     3     2 ar
    27    43     2 1
    28    43    44 1
    29     4    41 ar
    30    35    34 1
    31     2     1 ar
    32    44    45 1
    33    34    54 1
    34    54    26 1
    35    41    10 1
    36    41    42 ar
    37    50    10 1
    38    50    49 2
    39     1    42 ar
    40    10    11 2
    41    49    48 1
    42    26    25 ar
    43    26    27 ar
    44    29   108 1
    45   108    27 1
    46    11    48 1
    47    25    21 ar
    48    48    12 1
    49    27    28 ar
    50    17    12 ar
    51    17    16 ar
    52    12    13 ar
    53    21    20 1
    54    21    22 ar
    55    28    22 ar
    56    16    15 ar
    57    20    51 1
    58    22    23 1
    59    13    14 ar
    60    15    14 ar
    61    15    18 1
    62    51    19 1
    63    51    24 1
    64    19    18 1
    65    23    24 1
    66     1    58 1
    67     4    59 1
    68     8    60 1
    69     9    61 1
    70    11    62 1
    71    13    63 1
    72    14    64 1
    73    16    65 1
    74    17    66 1
    75    18    67 1
    76    18    68 1
    77    19    69 1
    78    19    70 1
    79    20    71 1
    80    23    72 1
    81    24    73 1
    82    25    74 1
    83    28    75 1
    84    29    76 1
    85    29    77 1
    86    29    78 1
    87    30    79 1
    88    31    80 1
    89    32    81 1
    90    33    82 1
    91    34    83 1
    92    34    84 1
    93    35    85 1
    94    35    86 1
    95    36    87 1
    96    36    88 1
    97    37    89 1
    98    37    90 1
    99    38    91 1
   100    38    92 1
   101    39    93 1
   102    39    94 1
   103    40    95 1
   104    40    96 1
   105    40    97 1
   106    42    98 1
   107    44    99 1
   108    44   100 1
   109    45   101 1
   110    45   102 1
   111    45   103 1
   112    46   104 1
   113    20   105 1
   114    23   106 1
   115    24   107 1
@<TRIPOS>SUBSTRUCTURE
     1 D6T         1 TEMP              0 ****  ****    0 ROOT
