@<TRIPOS>MOLECULE
molecule
   59    63     1     0     0
SMALL
bcc


@<TRIPOS>ATOM
      1 C4           0.0000     0.0000     0.0000 c3         1 D6W      -0.094400
      2 C5           1.5330     0.0000     0.0000 c3         1 D6W       0.092500
      3 C8          -2.2670     2.1420    -0.2990 c3         1 D6W       0.314200
      4 C10         -0.0580     2.4790     0.2580 c          1 D6W       0.722500
      5 C13         -2.2350    -1.1170     1.4110 ca         1 D6W      -0.160500
      6 C15         -3.5800    -2.5600     0.0540 ca         1 D6W      -0.144000
      7 C17         -3.3320    -0.2550    -0.5460 ca         1 D6W      -0.160500
      8 C20          3.4420    -1.9070     0.8670 ca         1 D6W      -0.172600
      9 C21          3.8450    -1.4720    -0.3820 ca         1 D6W      -0.032000
     10 C22          4.3900    -2.3970    -1.2910 ca         1 D6W      -0.208000
     11 C24          4.0870    -4.1860     0.4070 ca         1 D6W      -0.118000
     12 C26          4.8820    -2.3180    -2.5840 cc         1 D6W      -0.100100
     13 C1           1.5170     1.0410     2.3050 c3         1 D6W       0.092500
     14 C2          -0.0160     1.0340     2.2870 c3         1 D6W      -0.094400
     15 C3          -0.5070     1.1640     0.8480 c3         1 D6W       0.084200
     16 N6           2.0050     0.0000     1.3910 n          1 D6W      -0.483800
     17 N7          -1.9840     1.2080     0.8170 nh         1 D6W      -0.563000
     18 N9          -1.1020     3.0300    -0.3950 n          1 D6W      -0.487800
     19 O11          1.0530     2.9570     0.3540 o          1 D6W      -0.619500
     20 C12         -2.5170    -0.0560     0.5600 ca         1 D6W       0.087600
     21 C14         -2.7650    -2.3670     1.1540 ca         1 D6W      -0.107000
     22 C16         -3.8680    -1.5040    -0.7920 ca         1 D6W      -0.107000
     23 C18          2.8700    -0.9390     1.8210 c          1 D6W       0.678700
     24 O19          3.1800    -0.9870     2.9960 o          1 D6W      -0.613100
     25 C23          4.5170    -3.8060    -0.8840 ca         1 D6W      -0.022000
     26 C25          3.5640    -3.2620     1.2430 ca         1 D6W      -0.060000
     27 N27          5.2740    -3.5430    -2.9490 na         1 D6W       0.025800
     28 N28          5.0530    -4.4490    -1.9040 nc         1 D6W      -0.277400
     29 C29         -1.0770     4.3180    -1.0940 c3         1 D6W       0.057000
     30 C30         -0.6680     4.1040    -2.5280 c          1 D6W       0.634100
     31 O31         -0.4210     2.9850    -2.9270 o          1 D6W      -0.598100
     32 N32         -0.5750     5.1540    -3.3660 ns         1 D6W      -0.588900
     33 C33         -0.1770     4.9460    -4.7610 c3         1 D6W       0.103300
     34 H1          -0.3610    -0.9330     0.4170 hc         1 D6W       0.067450
     35 H2          -0.3600     0.1110    -1.0150 hc         1 D6W       0.067450
     36 H3           1.8950     0.8870    -0.5060 h1         1 D6W       0.075200
     37 H4           1.8950    -0.8870    -0.5050 h1         1 D6W       0.075200
     38 H5          -2.3900     1.5900    -1.2220 h2         1 D6W       0.061700
     39 H6          -3.1570     2.7200    -0.0820 h2         1 D6W       0.061700
     40 H7          -1.5970    -0.9660     2.2730 ha         1 D6W       0.143000
     41 H8          -3.9980    -3.5400    -0.1440 ha         1 D6W       0.132000
     42 H9          -3.5560     0.5700    -1.2110 ha         1 D6W       0.143000
     43 H10          3.8830    -0.4120    -0.5990 ha         1 D6W       0.140000
     44 H11          4.1670    -5.2190     0.7230 ha         1 D6W       0.144000
     45 H12          4.9350    -1.4230    -3.1930 h4         1 D6W       0.177000
     46 H13          1.8790     2.0090     1.9780 h1         1 D6W       0.075200
     47 H14          1.8690     0.8360     3.3090 h1         1 D6W       0.075200
     48 H15         -0.3870     1.8680     2.8700 hc         1 D6W       0.067450
     49 H16         -0.3770     0.1030     2.7070 hc         1 D6W       0.067450
     50 H17         -2.5430    -3.1950     1.8160 ha         1 D6W       0.134000
     51 H18         -4.5050    -1.6600    -1.6550 ha         1 D6W       0.134000
     52 H19          3.2380    -3.5670     2.2300 ha         1 D6W       0.149000
     53 H20          5.6670    -3.7790    -3.8390 hn         1 D6W       0.331700
     54 H21         -0.3670     4.9770    -0.6100 h1         1 D6W       0.077200
     55 H22         -2.0640     4.7640    -1.0630 h1         1 D6W       0.077200
     56 H23         -0.7790     6.0770    -3.0360 hn         1 D6W       0.312500
     57 H24          0.8090     4.4990    -4.7930 h1         1 D6W       0.043700
     58 H25         -0.1580     5.8980    -5.2780 h1         1 D6W       0.043700
     59 H26         -0.8880     4.2870    -5.2450 h1         1 D6W       0.043700
@<TRIPOS>BOND
     1    32    33 1
     2    32    30 1
     3    29    30 1
     4    29    18 1
     5    19     4 2
     6    30    31 2
     7    18     4 1
     8    18     3 1
     9     4    15 1
    10    13    14 1
    11    13    16 1
    12    14    15 1
    13    15     1 1
    14    15    17 1
    15    16     2 1
    16    16    23 1
    17     2     1 1
    18     3    17 1
    19    24    23 2
    20    17    20 1
    21    23     8 1
    22    26     8 ar
    23    26    11 ar
    24     8     9 ar
    25    20     7 ar
    26    20     5 ar
    27    11    25 ar
    28     9    10 ar
    29     7    22 ar
    30     5    21 ar
    31    25    10 ar
    32    25    28 2
    33    10    12 2
    34    22     6 ar
    35    21     6 ar
    36    28    27 1
    37    12    27 1
    38     1    34 1
    39     1    35 1
    40     2    36 1
    41     2    37 1
    42     3    38 1
    43     3    39 1
    44     5    40 1
    45     6    41 1
    46     7    42 1
    47     9    43 1
    48    11    44 1
    49    12    45 1
    50    13    46 1
    51    13    47 1
    52    14    48 1
    53    14    49 1
    54    21    50 1
    55    22    51 1
    56    26    52 1
    57    27    53 1
    58    29    54 1
    59    29    55 1
    60    32    56 1
    61    33    57 1
    62    33    58 1
    63    33    59 1
@<TRIPOS>SUBSTRUCTURE
     1 D6W         1 TEMP              0 ****  ****    0 ROOT
