@<TRIPOS>MOLECULE
D6Z
   56    60     1     0     0
SMALL
bcc


@<TRIPOS>ATOM
      1 C4           0.0000     0.0000     0.0000 ca         1 D6Z      -0.062000
      2 C5           1.3800     0.0000     0.0000 ca         1 D6Z      -0.116000
      3 C6           2.0810     0.0000     1.2040 ca         1 D6Z      -0.069400
      4 C13          7.1760    -3.0440    -2.3290 c3         1 D6Z       0.557900
      5 C17          3.7240    -0.0000     2.7780 c          1 D6Z       0.641500
      6 C20          2.2620    -1.2570     4.3550 c3         1 D6Z      -0.022400
      7 C21          3.3640    -1.2690     5.4200 c3         1 D6Z      -0.017500
      8 C24          2.2610     1.2520     4.3590 c3         1 D6Z      -0.022400
      9 C26          3.3400    -1.2790     8.2610 ca         1 D6Z       0.276800
     10 C28          3.1430    -2.4800    10.3230 ca         1 D6Z      -0.105000
     11 C12          6.1040    -3.0460    -1.2380 c3         1 D6Z      -0.006000
     12 C19          2.3970    -0.0010     3.5000 c3         1 D6Z      -0.081700
     13 C2          -0.0090    -0.0060     2.3950 ca         1 D6Z       0.094100
     14 C23          3.3630     1.2610     5.4240 c3         1 D6Z      -0.017500
     15 C27          3.0370    -1.3050     9.6260 ca         1 D6Z      -0.110300
     16 C29          3.5550    -3.6220     9.6390 ca         1 D6Z      -0.282500
     17 C3          -0.6980    -0.0000     1.1940 ca         1 D6Z      -0.108000
     18 C30          3.8460    -3.5320     8.2600 ca         1 D6Z       0.179000
     19 C32          4.2420    -4.8760     7.8430 cc         1 D6Z       0.344200
     20 C36          1.3690    -0.0010     2.3980 ca         1 D6Z      -0.118300
     21 C9           4.8320    -1.4190     0.0570 c          1 D6Z       0.558100
     22 F14          6.6880    -2.3850    -3.4620 f          1 D6Z      -0.202300
     23 F15          8.3180    -2.3850    -1.8610 f          1 D6Z      -0.202300
     24 F16          7.5040    -4.3630    -2.6630 f          1 D6Z      -0.202300
     25 N11          5.7610    -1.6650    -0.8890 ns         1 D6Z      -0.192900
     26 N22          3.3110    -0.0050     6.1680 n          1 D6Z      -0.097800
     27 N31          3.7300    -2.3730     7.6260 nb         1 D6Z      -0.458000
     28 N33          4.1800    -5.6530     8.8860 nd         1 D6Z      -0.627100
     29 N34          3.7630    -4.9240    10.0050 na         1 D6Z       0.423900
     30 N7           3.4530     0.0010     1.4600 n          1 D6Z       0.046000
     31 O10          4.2800    -2.3410     0.6180 o          1 D6Z      -0.622100
     32 O18          4.8230     0.0010     3.2890 o          1 D6Z      -0.639500
     33 O35          3.0310     1.0340     8.1100 o          1 D6Z      -0.667100
     34 Br1         -0.9580    -0.0060     4.0300 br         1 D6Z      -0.117100
     35 H38         -0.5390     0.0050    -0.9400 ha         1 D6Z       0.108000
     36 H39          1.9190     0.0000    -0.9390 ha         1 D6Z       0.105000
     37 H40          4.1010     0.5110    -0.4620 h1         1 D6Z       0.049700
     38 H41          5.3630     0.5120     0.7770 h1         1 D6Z       0.049700
     39 H45          1.2930    -1.2600     4.8400 hc         1 D6Z       0.032450
     40 H46          2.3590    -2.1340     3.7260 hc         1 D6Z       0.032450
     41 H47          3.2040    -2.0980     6.0980 h1         1 D6Z       0.065450
     42 H48          4.3300    -1.3660     4.9390 h1         1 D6Z       0.065450
     43 H51          2.3580     2.1310     3.7330 hc         1 D6Z       0.032450
     44 H52          1.2920     1.2530     4.8440 hc         1 D6Z       0.032450
     45 H54          2.9120    -2.5200    11.3810 ha         1 D6Z       0.114000
     46 H43          5.2200    -3.5570    -1.6010 h1         1 D6Z       0.062700
     47 H44          6.4820    -3.5570    -0.3610 h1         1 D6Z       0.062700
     48 H49          4.3290     1.3600     4.9440 h1         1 D6Z       0.065450
     49 H50          3.2030     2.0880     6.1050 h1         1 D6Z       0.065450
     50 H53          2.6210    -0.4270    10.1050 ha         1 D6Z       0.137000
     51 H37         -1.7810    -0.0000     1.1900 ha         1 D6Z       0.122000
     52 H55          4.5350    -5.1730     6.8430 h4         1 D6Z       0.023800
     53 H42          6.2170    -0.9040    -1.3520 hn         1 D6Z       0.185500
     54 H56          3.6380    -5.2960    10.9260 hn         1 D6Z       0.156700
     55 C8           4.4790     0.0010     0.4150 c3         1 D6Z      -0.028000
     56 C25          3.2170    -0.0070     7.5120 c          1 D6Z       0.499600
@<TRIPOS>BOND
     1     1     2 ar  
     2     1    17 ar  
     3     1    35 1   
     4     2     3 ar  
     5     2    36 1   
     6     3    20 ar  
     7     3    30 1   
     8     4    11 1   
     9     4    22 1   
    10     4    23 1   
    11     4    24 1   
    12     5    12 1   
    13     5    30 1   
    14     5    32 2   
    15     6     7 1   
    16     6    12 1   
    17     6    39 1   
    18     6    40 1   
    19     7    26 1   
    20     7    41 1   
    21     7    42 1   
    22     8    12 1   
    23     8    14 1   
    24     8    43 1   
    25     8    44 1   
    26     9    15 ar  
    27     9    27 ar  
    28     9    56 1   
    29    10    15 ar  
    30    10    16 ar  
    31    10    45 1   
    32    11    25 1   
    33    11    46 1   
    34    11    47 1   
    35    12    20 1   
    36    13    17 ar  
    37    13    20 ar  
    38    13    34 1   
    39    14    26 1   
    40    14    48 1   
    41    14    49 1   
    42    15    50 1   
    43    16    18 ar  
    44    16    29 1   
    45    17    51 1   
    46    18    19 1   
    47    18    27 ar  
    48    19    28 2   
    49    19    52 1   
    50    21    25 1   
    51    21    31 2   
    52    21    55 1   
    53    25    53 1   
    54    26    56 1   
    55    28    29 1   
    56    29    54 1   
    57    30    55 1   
    58    33    56 2   
    59    37    55 1   
    60    38    55 1   
@<TRIPOS>SUBSTRUCTURE
     1 D6Z         1 TEMP              0 ****  ****    0 ROOT
