@<TRIPOS>MOLECULE
D71
   41    44     1     0     0
SMALL
bcc


@<TRIPOS>ATOM
      1 C1           0.0000     0.0000     0.0000 ca         1 D71       0.046000
      2 C2           1.3950     0.0000     0.0000 ca         1 D71      -0.332900
      3 C3           2.0880     0.0000     1.2240 ca         1 D71       0.384200
      4 C5           0.1010     0.0110     2.3910 ca         1 D71       0.472200
      5 C6          -0.6470     0.0060     1.2240 ca         1 D71      -0.265300
      6 C14          4.1390     0.0000     0.0310 c          1 D71       0.600500
      7 O56          5.3100     3.5360     4.3070 o          1 D71      -0.448000
      8 O58          6.2340     2.4790     5.8820 o          1 D71      -0.448000
      9 C40          5.2410     1.2000     4.1930 ca         1 D71      -0.446200
     10 C39          4.5400     1.2030     3.0020 ca         1 D71       0.023000
     11 C41          5.5950     0.0020     4.7850 ca         1 D71       0.008000
     12 C42          5.2460    -1.1970     4.1910 ca         1 D71      -0.115000
     13 C43          4.5410    -1.2000     3.0030 ca         1 D71      -0.007000
     14 C22          4.1880     0.0010     2.4020 ca         1 D71      -0.108400
     15 N13          3.4730     0.0000     1.1980 n          1 D71       0.087500
     16 N4           1.4190     0.0010     2.3640 nb         1 D71      -0.616000
     17 O52          5.3540    -0.0000     0.0560 o          1 D71      -0.694500
     18 N15          3.5220     0.0000    -1.1610 n          1 D71      -0.088400
     19 C16          2.1740     0.0000    -1.2490 c          1 D71       0.649100
     20 O50          1.6190    -0.0010    -2.3320 o          1 D71      -0.643500
     21 C24          4.3250     0.0010    -2.3860 c3         1 D71       0.099300
     22 C26          4.6000    -1.4200    -2.8070 ca         1 D71      -0.105300
     23 C32          3.7330    -2.0890    -3.6570 ca         1 D71      -0.201800
     24 C31          4.0190    -3.3920    -4.0220 ca         1 D71       0.396700
     25 N30          5.1000    -3.9970    -3.5700 nb         1 D71      -0.576000
     26 C29          5.9470    -3.3910    -2.7610 ca         1 D71       0.396700
     27 C28          5.7290    -2.0870    -2.3580 ca         1 D71      -0.201800
     28 H1          -0.5590    -0.0040    -0.9280 ha         1 D71       0.133000
     29 H5          -0.4090     0.0160     3.3460 h4         1 D71      -0.015900
     30 H6          -1.7290     0.0150     1.2700 ha         1 D71       0.125000
     31 H39          4.2670     2.1420     2.5370 ha         1 D71       0.136000
     32 H41          6.1480     0.0020     5.7160 ha         1 D71       0.133000
     33 H42          5.5230    -2.1340     4.6590 ha         1 D71       0.119000
     34 H43          4.2680    -2.1400     2.5380 ha         1 D71       0.113000
     35 H24          3.7820     0.5120    -3.1730 h1         1 D71       0.056700
     36 H24A         5.2620     0.5110    -2.2040 h1         1 D71       0.056700
     37 H32          2.8430    -1.5980    -4.0310 ha         1 D71       0.133500
     38 H31          3.3460    -3.9220    -4.6860 h4         1 D71      -0.017900
     39 H29          6.8260    -3.9200    -2.4130 h4         1 D71      -0.017900
     40 H28          6.4290    -1.5940    -1.6930 ha         1 D71       0.133500
     41 N54          5.6170     2.4810     4.8320 no         1 D71       1.049200
@<TRIPOS>BOND
     1     1     2 ar  
     2     1     5 ar  
     3     1    28 1   
     4     2     3 ar  
     5     2    19 1   
     6     3    15 1   
     7     3    16 ar  
     8     4     5 ar  
     9     4    16 ar  
    10     4    29 1   
    11     5    30 1   
    12     6    15 1   
    13     6    17 2   
    14     6    18 1   
    15     7    41 1   
    16     8    41 1   
    17     9    10 ar  
    18     9    11 ar  
    19     9    41 1   
    20    10    14 ar  
    21    10    31 1   
    22    11    12 ar  
    23    11    32 1   
    24    12    13 ar  
    25    12    33 1   
    26    13    14 ar  
    27    13    34 1   
    28    14    15 1   
    29    18    19 1   
    30    18    21 1   
    31    19    20 2   
    32    21    22 1   
    33    21    35 1   
    34    21    36 1   
    35    22    23 ar  
    36    22    27 ar  
    37    23    24 ar  
    38    23    37 1   
    39    24    25 ar  
    40    24    38 1   
    41    25    26 ar  
    42    26    27 ar  
    43    26    39 1   
    44    27    40 1   
@<TRIPOS>SUBSTRUCTURE
     1 D71         1 TEMP              0 ****  ****    0 ROOT
