@<TRIPOS>MOLECULE
molecule
   41    44     1     0     0
SMALL
bcc


@<TRIPOS>ATOM
      1 C1           0.0000     0.0000     0.0000 ca         1 D71       0.007000
      2 C2           1.3950     0.0000     0.0000 ca         1 D71      -0.319900
      3 C3           2.0880     0.0000     1.2240 ca         1 D71       0.581200
      4 C5           0.1010     0.0110     2.3910 ca         1 D71       0.489200
      5 C6          -0.6470     0.0060     1.2240 ca         1 D71      -0.296300
      6 C14          4.1390     0.0000     0.0310 c          1 D71       0.823500
      7 O56          5.3100     3.5360     4.3070 o          1 D71      -0.202500
      8 O58          6.2340     2.4790     5.8820 o          1 D71      -0.202500
      9 C40          5.2410     1.2000     4.1930 ca         1 D71      -0.152200
     10 C39          4.5400     1.2030     3.0020 ca         1 D71      -0.046000
     11 C41          5.5950     0.0020     4.7850 ca         1 D71      -0.059000
     12 C42          5.2460    -1.1970     4.1910 ca         1 D71      -0.131000
     13 C43          4.5410    -1.2000     3.0030 ca         1 D71      -0.061000
     14 C22          4.1880     0.0010     2.4020 ca         1 D71       0.056600
     15 N13          3.4730     0.0000     1.1980 n          1 D71      -0.352500
     16 N4           1.4190     0.0010     2.3640 nb         1 D71      -0.730000
     17 O52          5.3540    -0.0000     0.0560 o          1 D71      -0.637500
     18 N15          3.5220     0.0000    -1.1610 n          1 D71      -0.467400
     19 C16          2.1740     0.0000    -1.2490 c          1 D71       0.721100
     20 O50          1.6190    -0.0010    -2.3320 o          1 D71      -0.604500
     21 C24          4.3250     0.0010    -2.3860 c3         1 D71       0.157300
     22 C26          4.6000    -1.4200    -2.8070 ca         1 D71      -0.092300
     23 C32          3.7330    -2.0890    -3.6570 ca         1 D71      -0.231800
     24 C31          4.0190    -3.3920    -4.0220 ca         1 D71       0.411700
     25 N30          5.1000    -3.9970    -3.5700 nb         1 D71      -0.684000
     26 C29          5.9470    -3.3910    -2.7610 ca         1 D71       0.411700
     27 C28          5.7290    -2.0870    -2.3580 ca         1 D71      -0.231800
     28 H1          -0.5590    -0.0040    -0.9280 ha         1 D71       0.170000
     29 H5          -0.4090     0.0160     3.3460 h4         1 D71       0.036100
     30 H6          -1.7290     0.0150     1.2700 ha         1 D71       0.153000
     31 H39          4.2670     2.1420     2.5370 ha         1 D71       0.174000
     32 H41          6.1480     0.0020     5.7160 ha         1 D71       0.168000
     33 H42          5.5230    -2.1340     4.6590 ha         1 D71       0.154000
     34 H43          4.2680    -2.1400     2.5380 ha         1 D71       0.152000
     35 H24          3.7820     0.5120    -3.1730 h1         1 D71       0.088700
     36 H24A         5.2620     0.5110    -2.2040 h1         1 D71       0.088700
     37 H32          2.8430    -1.5980    -4.0310 ha         1 D71       0.155000
     38 H31          3.3460    -3.9220    -4.6860 h4         1 D71       0.025600
     39 H29          6.8260    -3.9200    -2.4130 h4         1 D71       0.025600
     40 H28          6.4290    -1.5940    -1.6930 ha         1 D71       0.155000
     41 N54          5.6170     2.4810     4.8320 no         1 D71       0.296200
@<TRIPOS>BOND
     1     1     2 ar
     2     1    28 1
     3     2    19 1
     4     3     2 ar
     5     3    15 1
     6     4     5 ar
     7     4    16 ar
     8     4    29 1
     9     5     1 ar
    10     5    30 1
    11     6    18 1
    12     6    17 2
    13    41     7 1
    14     8    41 1
    15     9    41 1
    16     9    10 ar
    17    10    31 1
    18    11     9 ar
    19    11    32 1
    20    12    11 ar
    21    12    13 ar
    22    12    33 1
    23    13    14 ar
    24    13    34 1
    25    14    10 ar
    26    14    15 1
    27    15     6 1
    28    16     3 ar
    29    18    21 1
    30    19    18 1
    31    19    20 2
    32    21    22 1
    33    21    35 1
    34    21    36 1
    35    22    23 ar
    36    23    24 ar
    37    23    37 1
    38    24    38 1
    39    25    24 ar
    40    26    25 ar
    41    26    39 1
    42    27    22 ar
    43    27    26 ar
    44    27    40 1
@<TRIPOS>SUBSTRUCTURE
     1 D71         1 TEMP              0 ****  ****    0 ROOT
