@<TRIPOS>MOLECULE
D72
   36    37     1     0     0
SMALL
bcc


@<TRIPOS>ATOM
      1 C1         -0.0680    0.1620   -0.0090 ca        1 D72     -0.091000
      2 C2          1.3110   -0.1290    2.4330 ca        1 D72     -0.013600
      3 C3          1.3120   -0.0360   -0.0180 ca        1 D72     -0.072800
      4 C4         -0.7630    0.2260    1.2010 ca        1 D72     -0.017600
      5 C5         -0.0820    0.0790    2.4210 ca        1 D72      0.105100
      6 C6          2.0000   -0.1930    1.2080 ca        1 D72      0.140100
      7 C7          2.0850   -0.0560   -1.2430 ce        1 D72     -0.118200
      8 CL8        -2.4480    0.4830    1.1570 cl        1 D72     -0.102400
      9 O9         -0.7960    0.0390    3.6110 os        1 D72     -0.331900
     10 O10         3.3710   -0.3480    1.2570 os        1 D72     -0.306900
     11 C11         3.3850   -0.3950   -1.2130 cf        1 D72     -0.175400
     12 C12         4.2980   -0.2580   -2.4340 c         1 D72      0.918800
     13 C13         4.0310   -0.7910    0.0650 c3        1 D72      0.163300
     14 C14         4.2210   -2.3540    0.2070 c3        1 D72      0.604900
     15 O15         5.5260   -0.0960   -2.1960 o         1 D72     -0.807300
     16 O16         3.7590   -0.2790   -3.5700 o         1 D72     -0.807300
     17 C17        -0.9290    1.3350    4.2230 c3        1 D72      0.131400
     18 C18        -1.7260    1.1210    5.5070 c3        1 D72     -0.069700
     19 C19        -0.8690    0.4600    6.5640 c3        1 D72     -0.090100
     20 C20        -2.2640    2.4480    5.9950 c3        1 D72     -0.090100
     21 F21         3.0710   -3.1010    0.1670 f         1 D72     -0.242633
     22 F22         5.0390   -2.9220   -0.7290 f         1 D72     -0.242633
     23 F23         4.7970   -2.7030    1.4070 f         1 D72     -0.242633
     24 CL24        2.1360   -0.3010    3.9090 cl        1 D72     -0.068400
     25 H1         -0.6030    0.2720   -0.9650 ha        1 D72      0.154000
     26 H7          1.5990    0.2340   -2.1870 ha        1 D72      0.166000
     27 H13         5.0660   -0.3330    0.1330 h1        1 D72      0.151700
     28 H17        -1.4770    2.0170    3.5200 h1        1 D72      0.041200
     29 H17A        0.0890    1.7510    4.4400 h1        1 D72      0.041200
     30 H18        -2.5900    0.4390    5.2680 hc        1 D72      0.064700
     31 H19        -0.0360    1.1350    6.8750 hc        1 D72      0.035033
     32 H19A       -1.4820    0.2160    7.4640 hc        1 D72      0.035033
     33 H19B       -0.4290   -0.4830    6.1570 hc        1 D72      0.035033
     34 H20        -2.9490    2.8970    5.2370 hc        1 D72      0.035033
     35 H20A       -2.8310    2.3040    6.9460 hc        1 D72      0.035033
     36 H20B       -1.4290    3.1640    6.1860 hc        1 D72      0.035033
@<TRIPOS>BOND
     1    1    3 ar  
     2    1    4 ar  
     3    1   25 1   
     4    2    5 ar  
     5    2    6 ar  
     6    2   24 1   
     7    3    6 ar  
     8    3    7 1   
     9    4    5 ar  
    10    4    8 1   
    11    5    9 1   
    12    6   10 1   
    13    7   11 2   
    14    7   26 1   
    15    9   17 1   
    16   10   13 1   
    17   11   12 1   
    18   11   13 1   
    19   12   15 1   
    20   12   16 1   
    21   13   14 1   
    22   13   27 1   
    23   14   21 1   
    24   14   22 1   
    25   14   23 1   
    26   17   18 1   
    27   17   28 1   
    28   17   29 1   
    29   18   19 1   
    30   18   20 1   
    31   18   30 1   
    32   19   31 1   
    33   19   32 1   
    34   19   33 1   
    35   20   34 1   
    36   20   35 1   
    37   20   36 1   
@<TRIPOS>SUBSTRUCTURE
     1 D72         1 TEMP              0 ****  ****    0 ROOT
