@<TRIPOS>MOLECULE
molecule
   36    37     1     0     0
SMALL
bcc


@<TRIPOS>ATOM
      1 C1           0.0000     0.0000     0.0000 ca         1 D72      -0.084000
      2 C2           1.4080    -0.0030     2.4120 ca         1 D72      -0.005600
      3 C3           1.3960     0.0000     0.0000 ca         1 D72      -0.082800
      4 C4          -0.6800    -0.0020     1.1990 ca         1 D72      -0.009600
      5 C5           0.0180    -0.0040     2.4030 ca         1 D72       0.125100
      6 C6           2.1030     0.0000     1.2170 ca         1 D72       0.146100
      7 C7           2.1620     0.0020    -1.2540 ce         1 D72      -0.105200
      8 Cl8         -2.4170    -0.0020     1.2070 cl         1 D72      -0.117400
      9 O9          -0.6630    -0.0080     3.5780 os         1 D72      -0.338900
     10 O10          3.4580     0.0020     1.1930 os         1 D72      -0.302900
     11 C11          3.4770    -0.3320    -1.1950 cf         1 D72      -0.150400
     12 C12          4.2650    -0.3270    -2.3720 c          1 D72       0.872800
     13 C13          4.0940    -0.7050     0.1270 c3         1 D72       0.153300
     14 C14          3.9370    -2.2100     0.3530 c3         1 D72       0.583900
     15 O15          5.5720    -0.6570    -2.3110 o          1 D72      -0.824300
     16 O16          3.7630    -0.0240    -3.4380 o          1 D72      -0.824300
     17 C17         -0.9890     1.2650     4.1420 c3         1 D72       0.148400
     18 C18         -1.7500     1.0600     5.4530 c3         1 D72      -0.073700
     19 C19         -0.8320     0.3880     6.4760 c3         1 D72      -0.087100
     20 C20         -2.2090     2.4160     5.9940 c3         1 D72      -0.087100
     21 F21          2.5760    -2.5350     0.3840 f          1 D72      -0.223633
     22 F22          4.5590    -2.9050    -0.6900 f          1 D72      -0.223633
     23 F23          4.5290    -2.5640     1.5690 f          1 D72      -0.223633
     24 Cl24         2.2690    -0.0050     3.9190 cl         1 D72      -0.089400
     25 H1          -0.5450     0.0010    -0.9360 ha         1 D72       0.154000
     26 H7           1.7690     0.5080    -2.1270 ha         1 D72       0.173000
     27 H13          5.1470    -0.4500     0.1120 h1         1 D72       0.158700
     28 H17         -0.0780     1.8180     4.3350 h1         1 D72       0.033700
     29 H17A        -1.6080     1.8200     3.4470 h1         1 D72       0.033700
     30 H18         -2.6140     0.4310     5.2750 hc         1 D72       0.060700
     31 H19         -1.3370     0.3320     7.4330 hc         1 D72       0.035367
     32 H19A         0.0770     0.9680     6.5820 hc         1 D72       0.035367
     33 H19B        -0.5850    -0.6120     6.1390 hc         1 D72       0.035367
     34 H20         -2.7500     2.2710     6.9200 hc         1 D72       0.035367
     35 H20A        -2.8560     2.8940     5.2680 hc         1 D72       0.035367
     36 H20B        -1.3440     3.0440     6.1750 hc         1 D72       0.035367
@<TRIPOS>BOND
     1     1     3 ar
     2     1     4 ar
     3     1    25 1
     4     2     5 ar
     5     2     6 ar
     6     2    24 1
     7     3     6 ar
     8     3     7 1
     9     4     5 ar
    10     4     8 1
    11     5     9 1
    12     6    10 1
    13     7    11 2
    14     7    26 1
    15     9    17 1
    16    10    13 1
    17    11    12 1
    18    11    13 1
    19    12    15 1
    20    12    16 1
    21    13    14 1
    22    13    27 1
    23    14    21 1
    24    14    22 1
    25    14    23 1
    26    17    18 1
    27    17    28 1
    28    17    29 1
    29    18    19 1
    30    18    20 1
    31    18    30 1
    32    19    31 1
    33    19    32 1
    34    19    33 1
    35    20    34 1
    36    20    35 1
    37    20    36 1
@<TRIPOS>SUBSTRUCTURE
     1 D72         1 TEMP              0 ****  ****    0 ROOT
