@<TRIPOS>MOLECULE
D75
   48    51     1     0     0
SMALL
bcc


@<TRIPOS>ATOM
      1 C1          0.0190   -0.0240    0.0500 c3        1 D75      0.336900
      2 C2          1.5450    0.0430   -0.1720 c3        1 D75      0.121100
      3 O2          1.9180   -1.1410   -0.8590 oh        1 D75     -0.603800
      4 C3          2.2590    0.1170    1.1880 c3        1 D75      0.099100
      5 O3          3.6320    0.3610    0.9100 oh        1 D75     -0.628800
      6 C4          1.6460    1.2200    2.0660 c3        1 D75      0.115100
      7 O4          2.3100    1.1420    3.3140 oh        1 D75     -0.652800
      8 C5          0.1380    0.9850    2.1880 c3        1 D75     -0.024900
      9 O5         -0.4330    1.0240    0.8800 os        1 D75     -0.400600
     10 C6         -0.5980    2.0660    3.0390 c         1 D75      0.939600
     11 O10        -0.5810    0.2930   -1.2070 os        1 D75     -0.322900
     12 C11        -2.3590   -0.3310   -2.5940 ca        1 D75     -0.196000
     13 C12        -1.9400    0.0820   -1.3190 ca        1 D75      0.189100
     14 C13        -2.8700    0.3200   -0.2880 ca        1 D75     -0.188000
     15 C14        -4.2220    0.1330   -0.5360 ca        1 D75     -0.029000
     16 C15        -4.6810   -0.2840   -1.7990 ca        1 D75     -0.250600
     17 C16        -3.7310   -0.4980   -2.8090 ca        1 D75      0.139100
     18 C17        -6.1110   -0.4800   -2.0590 c         1 D75      0.603900
     19 C18        -6.4210   -0.9280   -3.4320 cc        1 D75     -0.219400
     20 C19        -5.4200   -1.0940   -4.3330 cd        1 D75      0.084100
     21 O20        -4.0880   -0.8970   -4.0950 os        1 D75     -0.222200
     22 C21        -7.8010   -1.1930   -3.8250 ca        1 D75     -0.054800
     23 C22        -8.0960   -2.2590   -4.6910 ca        1 D75     -0.080000
     24 C23        -9.4010   -2.5150   -5.0960 ca        1 D75     -0.188500
     25 C24       -10.4340   -1.6930   -4.6220 ca        1 D75      0.115100
     26 C25       -10.1620   -0.6320   -3.7480 ca        1 D75     -0.188500
     27 C26        -8.8500   -0.3890   -3.3530 ca        1 D75     -0.080000
     28 O27        -6.9810   -0.2850   -1.1970 o         1 D75     -0.561100
     29 O28       -11.7080   -1.9870   -5.0600 oh        1 D75     -0.505100
     30 O6A         0.1270    2.7510    3.8150 o         1 D75     -0.813800
     31 O6B        -1.8450    2.1350    2.9350 o         1 D75     -0.813800
     32 H1         -0.3100   -1.0310    0.4210 h2        1 D75      0.056700
     33 H2          1.8010    0.9430   -0.7950 h1        1 D75      0.072700
     34 H3          2.1770   -0.8750    1.7150 h1        1 D75      0.051700
     35 H4          1.8330    2.2310    1.6060 h1        1 D75      0.060700
     36 H5         -0.0560   -0.0170    2.6590 h1        1 D75      0.036700
     37 H22        -7.2850   -2.9120   -5.0480 ha        1 D75      0.146000
     38 H13        -2.5300    0.6890    0.7020 ha        1 D75      0.221000
     39 H23        -9.6340   -3.3480   -5.7720 ha        1 D75      0.137500
     40 H14        -4.9630    0.3210    0.2590 ha        1 D75      0.165000
     41 H25       -10.9780    0.0010   -3.3720 ha        1 D75      0.137500
     42 H26        -8.6320    0.4300   -2.6490 ha        1 D75      0.146000
     43 HO28      -12.3160   -1.3710   -4.6270 ho        1 D75      0.415000
     44 HO2         2.8840   -1.1350   -0.8910 ho        1 D75      0.413000
     45 HO3         4.0140    0.7160    1.7240 ho        1 D75      0.427000
     46 HO4         1.8430    1.7540    3.9120 ho        1 D75      0.467000
     47 H19        -5.5510   -1.4060   -5.3840 h4        1 D75      0.170000
     48 H11        -1.6330   -0.5050   -3.3980 ha        1 D75      0.162000
@<TRIPOS>BOND
     1    1    2 1   
     2    1    9 1   
     3    1   11 1   
     4    1   32 1   
     5    2    3 1   
     6    2    4 1   
     7    2   33 1   
     8    3   44 1   
     9    4    5 1   
    10    4    6 1   
    11    4   34 1   
    12    5   45 1   
    13    6    7 1   
    14    6    8 1   
    15    6   35 1   
    16    7   46 1   
    17    8    9 1   
    18    8   10 1   
    19    8   36 1   
    20   10   30 1   
    21   10   31 1   
    22   11   13 1   
    23   12   13 ar  
    24   12   17 ar  
    25   12   48 1   
    26   13   14 ar  
    27   14   15 ar  
    28   14   38 1   
    29   15   16 ar  
    30   15   40 1   
    31   16   17 ar  
    32   16   18 1   
    33   17   21 1   
    34   18   19 1   
    35   18   28 2   
    36   19   20 2   
    37   19   22 1   
    38   20   21 1   
    39   20   47 1   
    40   22   23 ar  
    41   22   27 ar  
    42   23   24 ar  
    43   23   37 1   
    44   24   25 ar  
    45   24   39 1   
    46   25   26 ar  
    47   25   29 1   
    48   26   27 ar  
    49   26   41 1   
    50   27   42 1   
    51   29   43 1   
@<TRIPOS>SUBSTRUCTURE
     1 D75         1 TEMP              0 ****  ****    0 ROOT
