@<TRIPOS>MOLECULE
molecule
   48    51     1     0     0
SMALL
bcc


@<TRIPOS>ATOM
      1 C1           0.0000     0.0000     0.0000 c3         1 D75       0.323900
      2 C2           1.5310     0.0000     0.0000 c3         1 D75       0.116100
      3 O2           2.0090    -1.1680    -0.6710 oh         1 D75      -0.609800
      4 C3           2.0330     0.0000     1.4460 c3         1 D75       0.108100
      5 O3           3.4610     0.0730     1.4570 oh         1 D75      -0.610800
      6 C4           1.4520     1.2150     2.1770 c3         1 D75       0.129100
      7 O4           1.8560     1.1870     3.5480 oh         1 D75      -0.567800
      8 C5          -0.0750     1.1680     2.0930 c3         1 D75       0.036100
      9 O5          -0.4750     1.1380     0.7210 os         1 D75      -0.401600
     10 C6          -0.6540     2.3910     2.7570 c          1 D75       0.898600
     11 O10         -0.4770     0.0560    -1.3460 os         1 D75      -0.312900
     12 C11         -2.3400     0.0060    -2.8110 ca         1 D75      -0.203000
     13 C12         -1.8180    -0.0420    -1.5290 ca         1 D75       0.218100
     14 C13         -2.6560    -0.1910    -0.4260 ca         1 D75      -0.210000
     15 C14         -4.0070    -0.2950    -0.5980 ca         1 D75      -0.007000
     16 C15         -4.5460    -0.2530    -1.8820 ca         1 D75      -0.268600
     17 C16         -3.7120    -0.0900    -3.0040 ca         1 D75       0.166100
     18 C17         -5.9980    -0.3800    -2.1130 c          1 D75       0.597900
     19 C18         -6.4090    -0.6130    -3.5100 cc         1 D75      -0.252400
     20 C19         -5.4830    -0.4300    -4.4890 cd         1 D75       0.094100
     21 O20         -4.2340    -0.0300    -4.2430 os         1 D75      -0.209200
     22 C21         -7.7920    -1.0360    -3.8390 ca         1 D75      -0.026800
     23 C22         -8.0240    -2.2900    -4.4020 ca         1 D75      -0.096500
     24 C23         -9.3120    -2.6800    -4.7060 ca         1 D75      -0.157000
     25 C24        -10.3760    -1.8260    -4.4520 ca         1 D75       0.097100
     26 C25        -10.1480    -0.5770    -3.8910 ca         1 D75      -0.157000
     27 C26         -8.8630    -0.1830    -3.5800 ca         1 D75      -0.096500
     28 O27         -6.8080    -0.2970    -1.2050 o          1 D75      -0.544100
     29 O28        -11.6430    -2.2140    -4.7520 oh         1 D75      -0.529100
     30 O6A         -0.4920     2.5760     4.0780 o          1 D75      -0.810800
     31 O6B         -1.2620     3.2040     2.1040 o          1 D75      -0.810800
     32 H1          -0.3590    -0.9030     0.4780 h2         1 D75       0.038700
     33 H2           1.8920     0.8870    -0.5060 h1         1 D75       0.066700
     34 H3           1.7080    -0.9070     1.9410 h1         1 D75       0.050700
     35 H4           1.8110     2.1230     1.7080 h1         1 D75       0.057700
     36 H5          -0.4350     0.2770     2.5910 h1         1 D75       0.040700
     37 H22         -7.1930    -2.9570    -4.6010 ha         1 D75       0.141000
     38 H13         -2.2330    -0.2340     0.5700 ha         1 D75       0.173000
     39 H23         -9.4930    -3.6540    -5.1440 ha         1 D75       0.136000
     40 H14         -4.6570    -0.4100     0.2610 ha         1 D75       0.159000
     41 H25        -10.9810     0.0860    -3.6910 ha         1 D75       0.136000
     42 H26         -8.6870     0.7920    -3.1420 ha         1 D75       0.141000
     43 HO28       -12.0220    -2.6530    -4.0090 ho         1 D75       0.416000
     44 HO2          2.5340    -0.9120    -1.4110 ho         1 D75       0.404000
     45 HO3          3.8120    -0.6980     1.8710 ho         1 D75       0.402000
     46 HO4          2.5420     1.8190     3.6860 ho         1 D75       0.400000
     47 H19         -5.7780    -0.6000    -5.5170 h4         1 D75       0.178000
     48 H11         -1.6750     0.0530    -3.6660 ha         1 D75       0.151000
@<TRIPOS>BOND
     1    11     1 1
     2    32     1 1
     3     1     2 1
     4     1     9 1
     5     3     2 1
     6    33     2 1
     7     2     4 1
     8    44     3 1
     9     4    34 1
    10     4     5 1
    11     4     6 1
    12    45     5 1
    13     8     6 1
    14    35     6 1
    15     6     7 1
    16     7    46 1
    17     9     8 1
    18     8    36 1
    19     8    10 1
    20    10    31 1
    21    10    30 1
    22    13    11 1
    23    17    12 ar
    24    12    48 1
    25    12    13 ar
    26    14    13 ar
    27    15    14 ar
    28    14    38 1
    29    16    15 ar
    30    40    15 1
    31    18    16 1
    32    16    17 ar
    33    21    17 1
    34    28    18 2
    35    19    18 1
    36    22    19 1
    37    19    20 2
    38    20    21 1
    39    47    20 1
    40    23    22 ar
    41    27    22 ar
    42    24    23 ar
    43    23    37 1
    44    25    24 ar
    45    39    24 1
    46    29    25 1
    47    25    26 ar
    48    41    26 1
    49    26    27 ar
    50    27    42 1
    51    43    29 1
@<TRIPOS>SUBSTRUCTURE
     1 D75         1 TEMP              0 ****  ****    0 ROOT
