@<TRIPOS>MOLECULE
molecule
   60    64     1     0     0
SMALL
bcc


@<TRIPOS>ATOM
      1 CZ7          0.0000     0.0000     0.0000 c3         1 D76       0.123100
      2 NZ2          1.4690     0.0000     0.0000 n3         1 D76      -0.670600
      3 CZ3          1.8930     0.0000     1.4120 c3         1 D76       0.219100
      4 CZ4          1.8910    -1.2800    -0.5810 c3         1 D76       0.123800
      5 CZ5          3.4010    -1.2800    -0.8340 c3         1 D76      -0.095700
      6 CZ6          4.0910    -0.9170     0.4800 cc         1 D76       0.364600
      7 CZ2          3.3440    -0.3360     1.4720 cd         1 D76      -0.061700
      8 NZ1          5.3670    -1.1260     0.7270 nc         1 D76      -0.600000
      9 CZ1          5.8990    -0.7890     1.8930 cd         1 D76       0.433900
     10 SZ1          4.4810    -0.1060     2.7440 ss         1 D76      -0.393300
     11 CC1          7.2870    -0.9370     2.3640 c          1 D76       0.617600
     12 OC1          7.9060    -1.9550     2.1210 o          1 D76      -0.495100
     13 NP2          7.8720     0.0570     3.0630 n          1 D76      -0.474800
     14 CP3          9.2060    -0.1270     3.6500 c3         1 D76       0.087000
     15 CP4         10.1230     0.9940     3.1460 c3         1 D76       0.210800
     16 CP2          7.1890     1.3450     3.2450 c3         1 D76       0.016700
     17 CC2          6.8890     1.5520     4.7070 c          1 D76       0.472100
     18 OC2          7.4940     0.9190     5.5460 o          1 D76      -0.389100
     19 NC2          5.9470     2.4410     5.0830 nz         1 D76      -0.682400
     20 CP1          8.1030     2.4640     2.7450 c3         1 D76       0.229800
     21 NP1          9.4370     2.2810     3.3330 n3         1 D76      -0.831500
     22 S1          10.1550     3.5020     4.1910 sy         1 D76       1.423200
     23 O1          11.1100     2.8720     5.0330 o          1 D76      -0.642800
     24 O2           9.0950     4.3380     4.6330 o          1 D76      -0.642800
     25 CN1         11.0870     4.4700     3.0510 ca         1 D76      -0.319500
     26 CN2         10.4810     5.5520     2.4150 ca         1 D76      -0.068000
     27 CN3         11.1720     6.3200     1.5290 ca         1 D76      -0.111000
     28 CN4         12.5170     6.0200     1.2500 ca         1 D76       0.015000
     29 CN5         13.2630     6.7900     0.3410 ca         1 D76      -0.128000
     30 CN9         13.1330     4.9200     1.8970 ca         1 D76      -0.068000
     31 C10         12.3880     4.1530     2.8100 ca         1 D76       0.017000
     32 CN8         14.4770     4.6200     1.6190 ca         1 D76      -0.090000
     33 CN7         15.1690     5.3880     0.7330 ca         1 D76      -0.117000
     34 CN6         14.5640     6.4700     0.0960 ca         1 D76       0.061400
     35 Cl1         15.4830     7.4240    -1.0270 cl         1 D76      -0.077400
     36 HZ71        -0.3610     0.8580     0.5530 h1         1 D76       0.046700
     37 HZ72        -0.3610    -0.9090     0.4670 h1         1 D76       0.046700
     38 HZ73        -0.3610     0.0500    -1.0200 h1         1 D76       0.046700
     39 HZ31         1.3250    -0.7420     1.9610 h1         1 D76       0.061700
     40 HZ32         1.7290     0.9820     1.8400 h1         1 D76       0.061700
     41 HZ41         1.6730    -2.0610     0.1380 h1         1 D76       0.059700
     42 HZ42         1.3920    -1.3940    -1.5350 h1         1 D76       0.059700
     43 HZ51         3.6270    -0.5120    -1.5640 hc         1 D76       0.085200
     44 HZ52         3.7030    -2.2820    -1.1150 hc         1 D76       0.085200
     45 HP31         9.6070    -1.0870     3.3480 h1         1 D76       0.096700
     46 HP32         9.1360    -0.0790     4.7300 h1         1 D76       0.096700
     47 HP41        10.3330     0.8450     2.0940 h1         1 D76       0.086700
     48 HP42        11.0470     0.9900     3.7120 h1         1 D76       0.086700
     49 HP2          6.2670     1.3500     2.6750 h1         1 D76       0.114700
     50 HC21         6.3350     3.0740     5.7550 hn         1 D76       0.480467
     51 HC22         5.1740     1.9540     5.4910 hn         1 D76       0.480467
     52 HP11         8.1740     2.4200     1.6650 h1         1 D76       0.081700
     53 HP12         7.7020     3.4240     3.0490 h1         1 D76       0.081700
     54 HN2          9.4450     5.7860     2.6290 ha         1 D76       0.136000
     55 HN3         10.6890     7.1580     1.0420 ha         1 D76       0.148000
     56 HN5         12.8050     7.6340    -0.1610 ha         1 D76       0.158000
     57 H10         12.8790     3.3910     3.4030 ha         1 D76       0.158000
     58 HN8         14.9610     3.7820     2.1060 ha         1 D76       0.149000
     59 HN7         16.2050     5.1540     0.5200 ha         1 D76       0.158000
     60 HC23         5.6360     2.9550     4.2830 hn         1 D76       0.480467
@<TRIPOS>BOND
     1     1     2 1
     2     1    36 1
     3     1    37 1
     4     1    38 1
     5     2     3 1
     6     2     4 1
     7     3     7 1
     8     3    39 1
     9     3    40 1
    10     4     5 1
    11     4    41 1
    12     4    42 1
    13     5     6 1
    14     5    43 1
    15     5    44 1
    16     6     7 2
    17     6     8 1
    18     7    10 1
    19     8     9 2
    20     9    10 1
    21     9    11 1
    22    11    12 2
    23    11    13 1
    24    13    14 1
    25    13    16 1
    26    14    15 1
    27    14    45 1
    28    14    46 1
    29    15    21 1
    30    15    47 1
    31    15    48 1
    32    16    17 1
    33    16    20 1
    34    16    49 1
    35    17    18 2
    36    17    19 1
    37    19    50 1
    38    19    51 1
    39    20    21 1
    40    20    52 1
    41    20    53 1
    42    21    22 1
    43    22    23 2
    44    22    24 2
    45    22    25 1
    46    25    26 ar
    47    25    31 ar
    48    26    27 ar
    49    26    54 1
    50    27    28 ar
    51    27    55 1
    52    28    29 ar
    53    28    30 ar
    54    29    34 ar
    55    29    56 1
    56    30    31 ar
    57    30    32 ar
    58    31    57 1
    59    32    33 ar
    60    32    58 1
    61    33    34 ar
    62    33    59 1
    63    34    35 1
    64    60    19 1
@<TRIPOS>SUBSTRUCTURE
     1 D76         1 TEMP              0 ****  ****    0 ROOT
