@<TRIPOS>MOLECULE
D78
   82    85     1     0     0
SMALL
bcc


@<TRIPOS>ATOM
      1 O9           0.0000     0.0000     0.0000 o          1 D78      -0.584800
      2 S8           1.4210     0.0000     0.0000 sy         1 D78       1.050200
      3 O10          2.1980     0.0000     1.1900 o          1 D78      -0.584800
      4 C5           1.9200    -1.4170    -0.9200 ca         1 D78      -0.209500
      5 C4           3.1690    -1.9720    -0.7100 ca         1 D78       0.044000
      6 C3           3.5620    -3.0830    -1.4300 ca         1 D78      -0.212500
      7 C2           2.7030    -3.6430    -2.3650 ca         1 D78       0.201100
      8 O19          3.0870    -4.7360    -3.0740 os         1 D78      -0.306900
      9 C18          2.1510    -5.2580    -4.0190 c3         1 D78       0.244700
     10 C7           1.4500    -3.0850    -2.5730 ca         1 D78      -0.212500
     11 C6           1.0590    -1.9770    -1.8470 ca         1 D78       0.044000
     12 N11          1.8870     1.3340    -0.8640 n3         1 D78      -0.519500
     13 C12          0.9790     1.9240    -1.8490 c3         1 D78       0.229800
     14 C13          0.1970     3.0690    -1.2010 c3         1 D78      -0.076700
     15 C14         -0.6600     3.7640    -2.2610 c3         1 D78      -0.002100
     16 C15         -0.7070     2.5100    -0.1000 c3         1 D78      -0.002100
     17 C16          3.2100     1.9250    -0.6410 c3         1 D78       0.208800
     18 C17          4.1970     1.3660    -1.6680 c3         1 D78       0.143100
     19 O18          3.8100     1.7870    -2.9780 oh         1 D78      -0.578800
     20 C19          5.6020     1.8860    -1.3590 c3         1 D78       0.002700
     21 C32          5.6380     3.4040    -1.5480 c3         1 D78       0.013900
     22 C38          6.9850     3.9320    -1.1270 ca         1 D78      -0.087300
     23 C33          8.0100     4.0250    -2.0500 ca         1 D78      -0.097500
     24 C34          9.2460     4.5080    -1.6640 ca         1 D78      -0.085500
     25 C35          9.4580     4.8990    -0.3550 ca         1 D78      -0.092000
     26 C36          8.4320     4.8060     0.5680 ca         1 D78      -0.085500
     27 C37          7.1950     4.3270     0.1810 ca         1 D78      -0.097500
     28 N20          6.5650     1.2590    -2.2680 ns         1 D78      -0.192900
     29 C21          7.8580     1.1440    -1.9050 c          1 D78       0.545100
     30 O22          8.2250     1.5600    -0.8270 o          1 D78      -0.580100
     31 C29          8.8490     0.4990    -2.8400 c3         1 D78       0.086100
     32 O28         10.1930     0.5580    -2.2800 os         1 D78      -0.322900
     33 C26         10.6560    -0.6840    -2.0970 c          1 D78       0.775600
     34 O27         11.7560    -0.9210    -1.6410 o          1 D78      -0.655500
     35 C25          8.5650    -1.0110    -2.9700 c3         1 D78      -0.002000
     36 N24          9.7930    -1.6430    -2.4640 n          1 D78      -0.039000
     37 C43         10.0240    -3.0210    -2.3790 ca         1 D78      -0.042400
     38 C44          9.0470    -3.9160    -2.7930 ca         1 D78      -0.129000
     39 C45          9.2790    -5.2750    -2.7080 ca         1 D78      -0.077000
     40 C40         10.4800    -5.7440    -2.2110 ca         1 D78      -0.074000
     41 C42         11.2330    -3.4940    -1.8860 ca         1 D78      -0.088000
     42 C41         11.4550    -4.8540    -1.7980 ca         1 D78      -0.175300
     43 C46         12.7630    -5.3700    -1.2560 c3         1 D78       0.641200
     44 F1          12.7550    -6.7690    -1.2710 f          1 D78      -0.206300
     45 F2          13.8150    -4.9010    -2.0520 f          1 D78      -0.206300
     46 F3          12.9350    -4.9180     0.0560 f          1 D78      -0.206300
     47 H4           3.8390    -1.5350     0.0200 ha         1 D78       0.123500
     48 H3           4.5410    -3.5180    -1.2650 ha         1 D78       0.125500
     49 H18          1.2430    -5.5500    -3.5050 h1         1 D78       0.001367
     50 H18A         1.9190    -4.4990    -4.7560 h1         1 D78       0.001367
     51 H18B         2.5800    -6.1220    -4.5130 h1         1 D78       0.001367
     52 H7           0.7760    -3.5210    -3.3010 ha         1 D78       0.125500
     53 H6           0.0810    -1.5400    -2.0090 ha         1 D78       0.123500
     54 H12          1.5520     2.3060    -2.6850 h1         1 D78       0.026700
     55 H12A         0.2880     1.1680    -2.2010 h1         1 D78       0.026700
     56 H13          0.8900     3.7830    -0.7720 hc         1 D78       0.025700
     57 H14         -0.0210     4.1460    -3.0480 hc         1 D78       0.009867
     58 H14A        -1.2020     4.5840    -1.8060 hc         1 D78       0.009867
     59 H14B        -1.3630     3.0550    -2.6790 hc         1 D78       0.009867
     60 H15         -0.1020     2.2220     0.7520 hc         1 D78       0.009867
     61 H15A        -1.4190     3.2680     0.2020 hc         1 D78       0.009867
     62 H15B        -1.2380     1.6430    -0.4740 hc         1 D78       0.009867
     63 H16          3.1470     3.0010    -0.7470 h1         1 D78       0.049700
     64 H16A         3.5500     1.6800     0.3580 h1         1 D78       0.049700
     65 H17          4.1930     0.2840    -1.6210 h1         1 D78       0.008700
     66 HO18         3.8390     1.0500    -3.5660 ho         1 D78       0.386000
     67 H19          5.8610     1.6430    -0.3360 h1         1 D78       0.071700
     68 H32          5.4670     3.6430    -2.5910 hc         1 D78       0.033700
     69 H32A         4.8660     3.8610    -0.9410 hc         1 D78       0.033700
     70 H33          7.8440     3.7180    -3.0760 ha         1 D78       0.097000
     71 H34         10.0490     4.5810    -2.3870 ha         1 D78       0.100500
     72 H35         10.4270     5.2770    -0.0520 ha         1 D78       0.102000
     73 H36          8.5960     5.1140     1.5930 ha         1 D78       0.100500
     74 H37          6.3920     4.2540     0.9050 ha         1 D78       0.097000
     75 HN20         6.2630     0.9150    -3.1580 hn         1 D78       0.166500
     76 H29          8.8250     0.9730    -3.8140 h1         1 D78       0.050700
     77 H25          7.7760    -1.2450    -2.2660 h1         1 D78       0.046200
     78 H25A         8.5090    -1.2320    -4.0290 h1         1 D78       0.046200
     79 H44          8.1050    -3.5490    -3.1830 ha         1 D78       0.107000
     80 H45          8.5170    -5.9750    -3.0310 ha         1 D78       0.109000
     81 H40         10.6580    -6.8110    -2.1430 ha         1 D78       0.123000
     82 H42         11.9970    -2.7970    -1.5630 ha         1 D78       0.183000
@<TRIPOS>BOND
     1     1     2 2   
     2     2     3 2   
     3     2     4 1   
     4     2    12 1   
     5     4     5 ar  
     6     4    11 ar  
     7     5     6 ar  
     8     5    47 1   
     9     6     7 ar  
    10     6    48 1   
    11     7     8 1   
    12     7    10 ar  
    13     8     9 1   
    14     9    49 1   
    15     9    50 1   
    16     9    51 1   
    17    10    11 ar  
    18    10    52 1   
    19    11    53 1   
    20    12    13 1   
    21    12    17 1   
    22    13    14 1   
    23    13    54 1   
    24    13    55 1   
    25    14    15 1   
    26    14    16 1   
    27    14    56 1   
    28    15    57 1   
    29    15    58 1   
    30    15    59 1   
    31    16    60 1   
    32    16    61 1   
    33    16    62 1   
    34    17    18 1   
    35    17    63 1   
    36    17    64 1   
    37    18    19 1   
    38    18    20 1   
    39    18    65 1   
    40    19    66 1   
    41    20    21 1   
    42    20    28 1   
    43    20    67 1   
    44    21    22 1   
    45    21    68 1   
    46    21    69 1   
    47    22    23 ar  
    48    22    27 ar  
    49    23    24 ar  
    50    23    70 1   
    51    24    25 ar  
    52    24    71 1   
    53    25    26 ar  
    54    25    72 1   
    55    26    27 ar  
    56    26    73 1   
    57    27    74 1   
    58    28    29 1   
    59    28    75 1   
    60    29    30 2   
    61    29    31 1   
    62    31    32 1   
    63    31    35 1   
    64    31    76 1   
    65    32    33 1   
    66    33    34 2   
    67    33    36 1   
    68    35    36 1   
    69    35    77 1   
    70    35    78 1   
    71    36    37 1   
    72    37    38 ar  
    73    37    41 ar  
    74    38    39 ar  
    75    38    79 1   
    76    39    40 ar  
    77    39    80 1   
    78    40    42 ar  
    79    40    81 1   
    80    41    42 ar  
    81    41    82 1   
    82    42    43 1   
    83    43    44 1   
    84    43    45 1   
    85    43    46 1   
@<TRIPOS>SUBSTRUCTURE
     1 D78         1 TEMP              0 ****  ****    0 ROOT
