@<TRIPOS>MOLECULE
D7A
   46    47     1     0     0
SMALL
bcc


@<TRIPOS>ATOM
      1 CAB          0.0000     0.0000     0.0000 c3         1 D7A       0.242700
      2 OAR          1.4290     0.0000     0.0000 os         1 D7A      -0.286900
      3 CAX          2.0470     0.0000     1.2120 ca         1 D7A       0.127100
      4 CAM          1.2930    -0.0010     2.3750 ca         1 D7A      -0.172000
      5 CAW          3.4360    -0.0050     1.2870 ca         1 D7A       0.131100
      6 OAQ          4.1800    -0.0040     0.1480 os         1 D7A      -0.287900
      7 CAA          5.6000    -0.0090     0.3010 c3         1 D7A       0.241700
      8 CAL          4.0600    -0.0110     2.5240 ca         1 D7A      -0.172000
      9 CAG          3.3030    -0.0120     3.6800 ca         1 D7A      -0.091000
     10 CAT          1.9220    -0.0010     3.6060 ca         1 D7A      -0.108300
     11 CAO          1.1010    -0.0020     4.8700 c3         1 D7A       0.029900
     12 CAN          0.8350     1.4410     5.3050 c3         1 D7A       0.045000
     13 NAP          0.0370     1.4410     6.5340 ns         1 D7A      -0.173900
     14 CAS         -0.3210     2.6080     7.1050 c          1 D7A       0.559700
     15 OAD          0.0180     3.6600     6.6010 o          1 D7A      -0.610100
     16 CAU         -1.1260     2.6070     8.3450 ca         1 D7A      -0.038600
     17 CAI         -1.5130     1.4000     8.9290 ca         1 D7A      -0.076000
     18 CAK         -2.2630     1.4060    10.0870 ca         1 D7A       0.005500
     19 CAH         -1.4990     3.8140     8.9390 ca         1 D7A      -0.076000
     20 CAJ         -2.2500     3.8070    10.0970 ca         1 D7A       0.005500
     21 CAV         -2.6340     2.6060    10.6670 ca         1 D7A      -0.219500
     22 SAY         -3.5940     2.6060    12.1450 sy         1 D7A       0.935200
     23 OAE         -4.2640     3.8580    12.1880 o          1 D7A      -0.494300
     24 OAF         -4.2740     1.3590    12.1820 o          1 D7A      -0.494300
     25 NAC         -2.5350     2.5990    13.4180 nz         1 D7A      -0.131500
     26 H1          -0.3610    -0.8890     0.5030 h1         1 D7A      -0.002633
     27 H2          -0.3610     0.8800     0.5180 h1         1 D7A      -0.002633
     28 H3          -0.3610     0.0090    -1.0210 h1         1 D7A      -0.002633
     29 H4           0.2110    -0.0200     2.3190 ha         1 D7A       0.123000
     30 H5           6.0680    -0.0060    -0.6760 h1         1 D7A      -0.000967
     31 H6           5.9080     0.8710     0.8510 h1         1 D7A      -0.000967
     32 H7           5.9020    -0.8980     0.8430 h1         1 D7A      -0.000967
     33 H8           5.1420    -0.0140     2.5850 ha         1 D7A       0.126000
     34 H9           3.7920    -0.0200     4.6470 ha         1 D7A       0.103000
     35 H10          1.6430    -0.5210     5.6510 hc         1 D7A       0.016700
     36 H11          0.1590    -0.5040     4.6880 hc         1 D7A       0.016700
     37 H12          1.7770     1.9430     5.4870 h1         1 D7A       0.039200
     38 H13          0.2940     1.9600     4.5230 h1         1 D7A       0.039200
     39 H14         -0.2570     0.5740     6.9400 hn         1 D7A       0.173500
     40 H15         -1.2230     0.4600     8.4750 ha         1 D7A       0.142500
     41 H16         -2.5660     0.4700    10.5400 ha         1 D7A       0.128000
     42 H17         -1.1980     4.7540     8.4930 ha         1 D7A       0.142500
     43 H18         -2.5420     4.7420    10.5580 ha         1 D7A       0.128000
     44 H19         -1.9610     3.4180    13.3800 hn         1 D7A       0.313800
     45 H20         -1.9560     1.7840    13.3660 hn         1 D7A       0.313800
     46 HAC3        -3.0470     2.5900    14.2780 hn         1 D7A       0.313800
@<TRIPOS>BOND
     1     1     2 1   
     2     1    26 1   
     3     1    27 1   
     4     1    28 1   
     5     2     3 1   
     6     3     4 ar  
     7     3     5 ar  
     8     4    10 ar  
     9     4    29 1   
    10     5     6 1   
    11     5     8 ar  
    12     6     7 1   
    13     7    30 1   
    14     7    31 1   
    15     7    32 1   
    16     8     9 ar  
    17     8    33 1   
    18     9    10 ar  
    19     9    34 1   
    20    10    11 1   
    21    11    12 1   
    22    11    35 1   
    23    11    36 1   
    24    12    13 1   
    25    12    37 1   
    26    12    38 1   
    27    13    14 1   
    28    13    39 1   
    29    14    15 2   
    30    14    16 1   
    31    16    17 ar  
    32    16    19 ar  
    33    17    18 ar  
    34    17    40 1   
    35    18    21 ar  
    36    18    41 1   
    37    19    20 ar  
    38    19    42 1   
    39    20    21 ar  
    40    20    43 1   
    41    21    22 1   
    42    22    23 2   
    43    22    24 2   
    44    22    25 1   
    45    25    44 1   
    46    25    45 1   
    47    25    46 1   
@<TRIPOS>SUBSTRUCTURE
     1 D7A         1 TEMP              0 ****  ****    0 ROOT
