@<TRIPOS>MOLECULE
molecule
   46    47     1     0     0
SMALL
bcc


@<TRIPOS>ATOM
      1 CAB          0.0000     0.0000     0.0000 c3         1 D7A       0.127700
      2 OAR          1.4290     0.0000     0.0000 os         1 D7A      -0.306900
      3 CAX          2.0470     0.0000     1.2120 ca         1 D7A       0.123100
      4 CAM          1.2930    -0.0010     2.3750 ca         1 D7A      -0.184000
      5 CAW          3.4360    -0.0050     1.2870 ca         1 D7A       0.129100
      6 OAQ          4.1800    -0.0040     0.1480 os         1 D7A      -0.307900
      7 CAA          5.6000    -0.0090     0.3010 c3         1 D7A       0.125700
      8 CAL          4.0600    -0.0110     2.5240 ca         1 D7A      -0.186000
      9 CAG          3.3030    -0.0120     3.6800 ca         1 D7A      -0.120000
     10 CAT          1.9220    -0.0010     3.6060 ca         1 D7A      -0.101300
     11 CAO          1.1010    -0.0020     4.8700 c3         1 D7A      -0.044100
     12 CAN          0.8350     1.4410     5.3050 c3         1 D7A       0.111000
     13 NAP          0.0370     1.4410     6.5340 ns         1 D7A      -0.570900
     14 CAS         -0.3210     2.6080     7.1050 c          1 D7A       0.649700
     15 OAD          0.0180     3.6600     6.6010 o          1 D7A      -0.567100
     16 CAU         -1.1260     2.6070     8.3450 ca         1 D7A      -0.037600
     17 CAI         -1.5130     1.4000     8.9290 ca         1 D7A      -0.097500
     18 CAK         -2.2630     1.4060    10.0870 ca         1 D7A      -0.035000
     19 CAH         -1.4990     3.8140     8.9390 ca         1 D7A      -0.097500
     20 CAJ         -2.2500     3.8070    10.0970 ca         1 D7A      -0.035000
     21 CAV         -2.6340     2.6060    10.6670 ca         1 D7A      -0.332500
     22 SAY         -3.5940     2.6060    12.1450 sy         1 D7A       1.226200
     23 OAE         -4.2640     3.8580    12.1880 o          1 D7A      -0.515300
     24 OAF         -4.2740     1.3590    12.1820 o          1 D7A      -0.515300
     25 NAC         -2.5350     2.5990    13.4180 nz         1 D7A      -0.807500
     26 H1          -0.3610    -0.8890     0.5030 h1         1 D7A       0.041700
     27 H2          -0.3610     0.8800     0.5180 h1         1 D7A       0.041700
     28 H3          -0.3610     0.0090    -1.0210 h1         1 D7A       0.041700
     29 H4           0.2110    -0.0200     2.3190 ha         1 D7A       0.140000
     30 H5           6.0680    -0.0060    -0.6760 h1         1 D7A       0.043700
     31 H6           5.9080     0.8710     0.8510 h1         1 D7A       0.043700
     32 H7           5.9020    -0.8980     0.8430 h1         1 D7A       0.043700
     33 H8           5.1420    -0.0140     2.5850 ha         1 D7A       0.146000
     34 H9           3.7920    -0.0200     4.6470 ha         1 D7A       0.129000
     35 H10          1.6430    -0.5210     5.6510 hc         1 D7A       0.049700
     36 H11          0.1590    -0.5040     4.6880 hc         1 D7A       0.049700
     37 H12          1.7770     1.9430     5.4870 h1         1 D7A       0.069200
     38 H13          0.2940     1.9600     4.5230 h1         1 D7A       0.069200
     39 H14         -0.2570     0.5740     6.9400 hn         1 D7A       0.312500
     40 H15         -1.2230     0.4600     8.4750 ha         1 D7A       0.175500
     41 H16         -2.5660     0.4700    10.5400 ha         1 D7A       0.159000
     42 H17         -1.1980     4.7540     8.4930 ha         1 D7A       0.175500
     43 H18         -2.5420     4.7420    10.5580 ha         1 D7A       0.159000
     44 H19         -1.9610     3.4180    13.3800 hn         1 D7A       0.492800
     45 H20         -1.9560     1.7840    13.3660 hn         1 D7A       0.492800
     46 HAC3        -3.0470     2.5900    14.2780 hn         1 D7A       0.492800
@<TRIPOS>BOND
     1     7     6 1
     2     8     9 ar
     3     8     5 ar
     4     9    10 ar
     5    12    13 1
     6    12    11 1
     7     6     5 1
     8     5     3 ar
     9    13    14 1
    10    15    14 2
    11    14    16 1
    12    10    11 1
    13    10     4 ar
    14     3     4 ar
    15     3     2 1
    16    16    19 ar
    17    16    17 ar
    18    19    20 ar
    19    17    18 ar
    20     1     2 1
    21    20    21 ar
    22    18    21 ar
    23    21    22 1
    24    25    22 1
    25    24    22 2
    26    22    23 2
    27     1    26 1
    28     1    27 1
    29     1    28 1
    30     4    29 1
    31     7    30 1
    32     7    31 1
    33     7    32 1
    34     8    33 1
    35     9    34 1
    36    11    35 1
    37    11    36 1
    38    12    37 1
    39    12    38 1
    40    13    39 1
    41    17    40 1
    42    18    41 1
    43    19    42 1
    44    20    43 1
    45    25    44 1
    46    25    45 1
    47    46    25 1
@<TRIPOS>SUBSTRUCTURE
     1 D7A         1 TEMP              0 ****  ****    0 ROOT
