@<TRIPOS>MOLECULE
D7B
   62    66     1     0     0
SMALL
bcc


@<TRIPOS>ATOM
      1 C10          0.0000     0.0000     0.0000 c3         1 D7B       0.096800
      2 C17         -2.4910     1.3250    -0.7040 ca         1 D7B      -0.104300
      3 C20         -2.6440     2.4510    -2.8120 ca         1 D7B      -0.104000
      4 C22         -3.4780     1.4550    -3.2840 ca         1 D7B      -0.101000
      5 C24         -3.8230     0.3960    -2.4630 ca         1 D7B      -0.080000
      6 C26         -3.3260     0.3290    -1.1760 ca         1 D7B      -0.106300
      7 C01          3.6420    -1.7420     0.8660 c3         1 D7B      -0.159100
      8 C05          3.0080    -0.7580     1.8150 c          1 D7B       0.593100
      9 O06          3.4310    -0.6490     2.9470 o          1 D7B      -0.638100
     10 N07          1.9710     0.0000     1.4070 n          1 D7B       0.020000
     11 C08          1.5350     0.0000     0.0000 c3         1 D7B       0.063700
     12 N13         -0.4800     1.2200     0.6550 nh         1 D7B      -0.341000
     13 C14         -1.9480     1.2520     0.7000 c3         1 D7B       0.175100
     14 C18         -2.1500     2.3860    -1.5230 ca         1 D7B      -0.081000
     15 C27         -3.6920    -0.8300    -0.2860 c3         1 D7B       0.279700
     16 O30         -4.4850    -1.7650    -1.0220 oh         1 D7B      -0.590800
     17 C32          0.0630     1.4070     1.9280 ca         1 D7B      -0.014400
     18 C33         -0.6190     2.2060     2.8350 ca         1 D7B      -0.139000
     19 C35         -0.1000     2.4170     4.1110 ca         1 D7B      -0.044800
     20 C36          1.1090     1.8250     4.4790 ca         1 D7B      -0.092000
     21 C38          1.7860     1.0300     3.5780 ca         1 D7B      -0.141000
     22 C40          1.2680     0.8180     2.3070 ca         1 D7B      -0.103400
     23 C41         -0.8310     3.2660     5.0760 ce         1 D7B      -0.059400
     24 C42         -2.0060     2.8640     5.5080 c2         1 D7B      -0.163200
     25 C44         -2.8350     3.6520     6.4800 c3         1 D7B       0.200000
     26 N47         -2.0060     4.6580     7.1560 n7         1 D7B      -0.578200
     27 C49         -1.2600     5.4530     6.1660 c3         1 D7B       0.143800
     28 C52         -0.1980     4.5530     5.5260 c3         1 D7B       0.037800
     29 C55          2.0560    -1.2520    -0.7080 cx         1 D7B      -0.191700
     30 C57          1.3090    -2.5640    -0.4630 cx         1 D7B      -0.081900
     31 C60          1.1840    -1.8540    -1.8120 cx         1 D7B      -0.081900
     32 H1          -0.3610    -0.8660     0.5410 h1         1 D7B       0.039200
     33 H2          -0.3610    -0.0270    -1.0210 h1         1 D7B       0.039200
     34 H3          -2.3750     3.2810    -3.4550 ha         1 D7B       0.104000
     35 H4          -3.8670     1.5060    -4.2940 ha         1 D7B       0.103000
     36 H5          -4.4770    -0.3840    -2.8330 ha         1 D7B       0.126000
     37 H6           4.4550    -2.2530     1.3660 hc         1 D7B       0.051033
     38 H7           2.9010    -2.4660     0.5480 hc         1 D7B       0.051033
     39 H8           4.0250    -1.2140     0.0010 hc         1 D7B       0.051033
     40 H9           1.9010     0.8900    -0.4970 h1         1 D7B       0.051700
     41 H10         -2.2730     2.1210     1.2590 h1         1 D7B       0.032700
     42 H11         -2.3140     0.3540     1.1820 h1         1 D7B       0.032700
     43 H12         -1.4960     3.1670    -1.1530 ha         1 D7B       0.115000
     44 H13         -2.7900    -1.3180     0.0620 h1         1 D7B      -0.004300
     45 H14         -4.2570    -0.4680     0.5640 h1         1 D7B      -0.004300
     46 H15         -5.0000    -2.2800    -0.4240 ho         1 D7B       0.392000
     47 H16         -1.5580     2.6660     2.5500 ha         1 D7B       0.124000
     48 H17          1.5140     1.9880     5.4710 ha         1 D7B       0.112000
     49 H18          2.7250     0.5710     3.8630 ha         1 D7B       0.195000
     50 H19         -2.3930     1.9180     5.1470 ha         1 D7B       0.105000
     51 H20         -3.6350     4.1500     5.9450 h1         1 D7B       0.008700
     52 H21         -3.2540     2.9800     7.2190 h1         1 D7B       0.008700
     53 H22         -2.5910     5.2630     7.6970 hn         1 D7B       0.249800
     54 H24         -0.7790     6.2890     6.6590 h1         1 D7B       0.006700
     55 H25         -1.9390     5.8140     5.4030 h1         1 D7B       0.006700
     56 H26          0.2340     5.0590     4.6710 hc         1 D7B       0.027200
     57 H27          0.5760     4.3370     6.2530 hc         1 D7B       0.027200
     58 H28          3.1230    -1.3600    -0.8630 hc         1 D7B       0.115700
     59 H29          0.4420    -2.4960     0.1830 hc         1 D7B       0.055950
     60 H30          1.9210    -3.4580    -0.4600 hc         1 D7B       0.055950
     61 H31          0.2410    -1.3510    -1.9900 hc         1 D7B       0.055950
     62 H32          1.7210    -2.3130    -2.6330 hc         1 D7B       0.055950
@<TRIPOS>BOND
     1     1    11 1   
     2     1    12 1   
     3     1    32 1   
     4     1    33 1   
     5     2     6 ar  
     6     2    13 1   
     7     2    14 ar  
     8     3     4 ar  
     9     3    14 ar  
    10     3    34 1   
    11     4     5 ar  
    12     4    35 1   
    13     5     6 ar  
    14     5    36 1   
    15     6    15 1   
    16     7     8 1   
    17     7    37 1   
    18     7    38 1   
    19     7    39 1   
    20     8     9 2   
    21     8    10 1   
    22    10    11 1   
    23    10    22 1   
    24    11    29 1   
    25    11    40 1   
    26    12    13 1   
    27    12    17 1   
    28    13    41 1   
    29    13    42 1   
    30    14    43 1   
    31    15    16 1   
    32    15    44 1   
    33    15    45 1   
    34    16    46 1   
    35    17    18 ar  
    36    17    22 ar  
    37    18    19 ar  
    38    18    47 1   
    39    19    20 ar  
    40    19    23 1   
    41    20    21 ar  
    42    20    48 1   
    43    21    22 ar  
    44    21    49 1   
    45    23    24 2   
    46    23    28 1   
    47    24    25 1   
    48    24    50 1   
    49    25    26 1   
    50    25    51 1   
    51    25    52 1   
    52    26    27 1   
    53    26    53 1   
    54    27    28 1   
    55    27    54 1   
    56    27    55 1   
    57    28    56 1   
    58    28    57 1   
    59    29    30 1   
    60    29    31 1   
    61    29    58 1   
    62    30    31 1   
    63    30    59 1   
    64    30    60 1   
    65    31    61 1   
    66    31    62 1   
@<TRIPOS>SUBSTRUCTURE
     1 D7B         1 TEMP              0 ****  ****    0 ROOT
