@<TRIPOS>MOLECULE
D7D
   43    45     1     0     0
SMALL
bcc


@<TRIPOS>ATOM
      1 C1           0.0000     0.0000     0.0000 ca         1 D7D       0.272800
      2 C2           1.4070     0.0000     0.0000 ca         1 D7D      -0.369400
      3 N3           6.2380    -2.1090    -4.0030 n7         1 D7D      -0.571100
      4 C4           3.9370     0.0000    -2.6740 cy         1 D7D       0.097500
      5 C5           5.4690    -0.0390    -2.8020 cy         1 D7D      -0.056900
      6 C6           5.2680    -1.0110    -3.9760 cy         1 D7D       0.177500
      7 C8           8.3260    -0.7840    -5.1930 c3         1 D7D      -0.016600
      8 C9           9.3430    -0.8100    -6.3370 c3         1 D7D       0.005600
      9 C10         10.2250     0.4370    -6.2640 c3         1 D7D       0.007900
     10 C11          4.0180     1.1370    -0.5380 c3         1 D7D       0.164100
     11 C12          1.8150     0.0000     1.4040 cc         1 D7D      -0.121200
     12 C13          0.6890     0.0010     2.1350 cd         1 D7D      -0.281100
     13 O1           8.0350    -3.4280    -4.9790 o          1 D7D      -0.584300
     14 O            6.4390    -2.2110    -6.4260 o          1 D7D      -0.584300
     15 C7           3.9250    -1.3910    -3.3290 cy         1 D7D      -0.056900
     16 C3           2.0810     0.0000    -1.2310 ca         1 D7D       0.582200
     17 N            1.3570     0.0010    -2.3470 nb         1 D7D      -0.714000
     18 N4          -0.4040     0.0000     1.3060 na         1 D7D       0.275900
     19 N1          -0.6360     0.0040    -1.1710 nb         1 D7D      -0.656000
     20 C            0.0360     0.0010    -2.3010 ca         1 D7D       0.667900
     21 H8           6.2530    -2.7810    -3.2620 hn         1 D7D       0.354800
     22 H            3.4840     0.7610    -3.2980 h1         1 D7D       0.057700
     23 H4           5.9550    -0.4980    -1.9500 hc         1 D7D       0.037200
     24 H5           5.8930     0.9110    -3.1070 hc         1 D7D       0.037200
     25 H1           5.1460    -0.5020    -4.9240 h1         1 D7D       0.062700
     26 H10          7.7080     0.1020    -5.2790 h1         1 D7D       0.065700
     27 H9           8.8500    -0.7680    -4.2450 h1         1 D7D       0.065700
     28 H11          9.9610    -1.6950    -6.2510 hc         1 D7D       0.026700
     29 H12          8.8190    -0.8260    -7.2850 hc         1 D7D       0.026700
     30 H15         10.9640     0.4040    -7.0550 hc         1 D7D       0.002700
     31 H14         10.7260     0.4690    -5.3030 hc         1 D7D       0.002700
     32 H13          9.6110     1.3220    -6.3800 hc         1 D7D       0.002700
     33 H18          4.5830     0.7720     0.3110 h1         1 D7D       0.014033
     34 H17          4.6680     1.7180    -1.1810 h1         1 D7D       0.014033
     35 H16          3.2050     1.7620    -0.1880 h1         1 D7D       0.014033
     36 H19          2.8310     0.0000     1.7810 ha         1 D7D       0.135000
     37 H20          0.6490     0.0020     3.2180 h4         1 D7D       0.145000
     38 H7           4.0120    -2.1980    -2.6120 hc         1 D7D       0.037200
     39 H6           3.1260    -1.5120    -4.0510 hc         1 D7D       0.037200
     40 H2          -1.3570     0.0010     1.6120 hn         1 D7D       0.120700
     41 H3          -0.5150     0.0010    -3.2340 h5         1 D7D      -0.002900
     42 N2           3.4630    -0.0010    -1.2830 nh         1 D7D      -0.445300
     43 S            7.2790    -2.2630    -5.2820 s6         1 D7D       0.949900
@<TRIPOS>BOND
     1     1     2 ar  
     2     1    18 1   
     3     1    19 ar  
     4     2    11 1   
     5     2    16 ar  
     6     3     6 1   
     7     3    21 1   
     8     3    43 1   
     9     4     5 1   
    10     4    15 1   
    11     4    22 1   
    12     4    42 1   
    13     5     6 1   
    14     5    23 1   
    15     5    24 1   
    16     6    15 1   
    17     6    25 1   
    18     7     8 1   
    19     7    26 1   
    20     7    27 1   
    21     7    43 1   
    22     8     9 1   
    23     8    28 1   
    24     8    29 1   
    25     9    30 1   
    26     9    31 1   
    27     9    32 1   
    28    10    33 1   
    29    10    34 1   
    30    10    35 1   
    31    10    42 1   
    32    11    12 2   
    33    11    36 1   
    34    12    18 1   
    35    12    37 1   
    36    13    43 2   
    37    14    43 2   
    38    15    38 1   
    39    15    39 1   
    40    16    17 ar  
    41    16    42 1   
    42    17    20 ar  
    43    18    40 1   
    44    19    20 ar  
    45    20    41 1   
@<TRIPOS>SUBSTRUCTURE
     1 D7D         1 TEMP              0 ****  ****    0 ROOT
