@<TRIPOS>MOLECULE
molecule
   43    45     1     0     0
SMALL
bcc


@<TRIPOS>ATOM
      1 C1           0.0000     0.0000     0.0000 ca         1 D7D       0.505800
      2 C2           1.4070     0.0000     0.0000 ca         1 D7D      -0.364400
      3 N3           6.2380    -2.1090    -4.0030 n7         1 D7D      -0.897100
      4 C4           3.9370     0.0000    -2.6740 cy         1 D7D       0.153500
      5 C5           5.4690    -0.0390    -2.8020 cy         1 D7D      -0.101400
      6 C6           5.2680    -1.0110    -3.9760 cy         1 D7D       0.212500
      7 C8           8.3260    -0.7840    -5.1930 c3         1 D7D      -0.226600
      8 C9           9.3430    -0.8100    -6.3370 c3         1 D7D      -0.062400
      9 C10         10.2250     0.4370    -6.2640 c3         1 D7D      -0.083100
     10 C11          4.0180     1.1370    -0.5380 c3         1 D7D       0.158100
     11 C12          1.8150     0.0000     1.4040 cc         1 D7D      -0.166200
     12 C13          0.6890     0.0010     2.1350 cd         1 D7D      -0.110100
     13 O1           8.0350    -3.4280    -4.9790 o          1 D7D      -0.629800
     14 O            6.4390    -2.2110    -6.4260 o          1 D7D      -0.629800
     15 C7           3.9250    -1.3910    -3.3290 cy         1 D7D      -0.101400
     16 C3           2.0810     0.0000    -1.2310 ca         1 D7D       0.693200
     17 N            1.3570     0.0010    -2.3470 nb         1 D7D      -0.814000
     18 N4          -0.4040     0.0000     1.3060 na         1 D7D      -0.272100
     19 N1          -0.6360     0.0040    -1.1710 nb         1 D7D      -0.780000
     20 C            0.0360     0.0010    -2.3010 ca         1 D7D       0.722900
     21 H8           6.2530    -2.7810    -3.2620 hn         1 D7D       0.459800
     22 H            3.4840     0.7610    -3.2980 h1         1 D7D       0.077700
     23 H4           5.9550    -0.4980    -1.9500 hc         1 D7D       0.067450
     24 H5           5.8930     0.9110    -3.1070 hc         1 D7D       0.067450
     25 H1           5.1460    -0.5020    -4.9240 h1         1 D7D       0.091700
     26 H10          7.7080     0.1020    -5.2790 h1         1 D7D       0.095700
     27 H9           8.8500    -0.7680    -4.2450 h1         1 D7D       0.095700
     28 H11          9.9610    -1.6950    -6.2510 hc         1 D7D       0.055200
     29 H12          8.8190    -0.8260    -7.2850 hc         1 D7D       0.055200
     30 H15         10.9640     0.4040    -7.0550 hc         1 D7D       0.037033
     31 H14         10.7260     0.4690    -5.3030 hc         1 D7D       0.037033
     32 H13          9.6110     1.3220    -6.3800 hc         1 D7D       0.037033
     33 H18          4.5830     0.7720     0.3110 h1         1 D7D       0.045700
     34 H17          4.6680     1.7180    -1.1810 h1         1 D7D       0.045700
     35 H16          3.2050     1.7620    -0.1880 h1         1 D7D       0.045700
     36 H19          2.8310     0.0000     1.7810 ha         1 D7D       0.159000
     37 H20          0.6490     0.0020     3.2180 h4         1 D7D       0.173000
     38 H7           4.0120    -2.1980    -2.6120 hc         1 D7D       0.067450
     39 H6           3.1260    -1.5120    -4.0510 hc         1 D7D       0.067450
     40 H2          -1.3570     0.0010     1.6120 hn         1 D7D       0.307700
     41 H3          -0.5150     0.0010    -3.2340 h5         1 D7D       0.060100
     42 N2           3.4630    -0.0010    -1.2830 nh         1 D7D      -0.683300
     43 S            7.2790    -2.2630    -5.2820 s6         1 D7D       1.324900
@<TRIPOS>BOND
     1    14    43 2
     2     8     7 1
     3     8     9 1
     4     7    43 1
     5    43     3 1
     6    43    13 2
     7     3     6 1
     8     6    15 1
     9     6     5 1
    10    15     4 1
    11     5     4 1
    12    10    42 1
    13     4    42 1
    14    42    16 1
    15    16    17 ar
    16    16     2 ar
    17    11     2 1
    18    11    12 2
    19    17    20 ar
    20     2     1 ar
    21    12    18 1
    22    20    19 ar
    23     1    18 1
    24     1    19 ar
    25     3    21 1
    26     4    22 1
    27     5    23 1
    28     5    24 1
    29     6    25 1
    30     7    26 1
    31     7    27 1
    32     8    28 1
    33     8    29 1
    34     9    30 1
    35     9    31 1
    36     9    32 1
    37    10    33 1
    38    10    34 1
    39    10    35 1
    40    11    36 1
    41    12    37 1
    42    15    38 1
    43    15    39 1
    44    18    40 1
    45    20    41 1
@<TRIPOS>SUBSTRUCTURE
     1 D7D         1 TEMP              0 ****  ****    0 ROOT
