@<TRIPOS>MOLECULE
D7E
   45    47     1     0     0
SMALL
bcc


@<TRIPOS>ATOM
      1 C1           0.0000     0.0000     0.0000 c3         1 D7E      -0.017100
      2 C2           1.5300     0.0000     0.0000 c3         1 D7E      -0.047700
      3 N3           2.0190     0.0000     1.3810 na         1 D7E       0.327700
      4 C4           2.2920    -1.1130     2.1520 ca         1 D7E      -0.271200
      5 C5           2.2160    -2.4810     1.9350 ca         1 D7E      -0.015000
      6 C6           2.5730    -3.3530     2.9430 ca         1 D7E      -0.202300
      7 C7           3.0070    -2.8710     4.1690 ca         1 D7E      -0.072000
      8 C8           3.0880    -1.5270     4.4000 ca         1 D7E      -0.040000
      9 C9           2.7310    -0.6240     3.3940 ca         1 D7E       0.088400
     10 N10          2.7050     0.7310     3.3180 nc         1 D7E      -0.517100
     11 C11          2.2930     1.0950     2.1400 cd         1 D7E       0.219800
     12 C12          2.1390     2.5230     1.6810 c3         1 D7E       0.207200
     13 C14          0.8910     3.1320     2.3250 c3         1 D7E      -0.029100
     14 N15          3.3180     3.2930     2.0790 n7         1 D7E      -0.571100
     15 S16          3.8880     4.5010     1.0990 sy         1 D7E       1.043200
     16 O17          5.0030     5.0710     1.7710 o          1 D7E      -0.585800
     17 O18          3.9650     3.9540    -0.2090 o          1 D7E      -0.585800
     18 C19          2.6490     5.7530     1.0420 ca         1 D7E      -0.164500
     19 C20          2.6600     6.7800     1.9690 ca         1 D7E       0.015500
     20 C21          1.6880     7.7620     1.9240 ca         1 D7E      -0.131500
     21 C22          0.7050     7.7180     0.9520 ca         1 D7E       0.012400
     22 C23          0.6940     6.6910     0.0250 ca         1 D7E      -0.131500
     23 C24          1.6690     5.7120     0.0670 ca         1 D7E       0.015500
     24 Cl25        -0.5160     8.9510     0.8960 cl         1 D7E      -0.011400
     25 C26          2.4910    -4.8400     2.7100 c3         1 D7E       0.642200
     26 F27          3.7080    -5.2990     2.1970 f          1 D7E      -0.208633
     27 F28          2.2210    -5.4870     3.9200 f          1 D7E      -0.208633
     28 F29          1.4670    -5.1130     1.7960 f          1 D7E      -0.208633
     29 H11C        -0.3610    -0.0580     1.0200 hc         1 D7E       0.016033
     30 H12C        -0.3610     0.9120    -0.4590 hc         1 D7E       0.016033
     31 H13C        -0.3610    -0.8540    -0.5600 hc         1 D7E       0.016033
     32 H21C         1.8910     0.8840    -0.5110 h1         1 D7E       0.043700
     33 H22C         1.8910    -0.8850    -0.5110 h1         1 D7E       0.043700
     34 H5           1.8780    -2.8630     0.9800 ha         1 D7E       0.115000
     35 H7           3.2840    -3.5670     4.9520 ha         1 D7E       0.120000
     36 H8           3.4290    -1.1610     5.3620 ha         1 D7E       0.117000
     37 H12          2.0380     2.5470     0.6030 h1         1 D7E       0.041700
     38 H141         0.2110     3.4660     1.5500 hc         1 D7E       0.018033
     39 H142         0.4000     2.3870     2.9380 hc         1 D7E       0.018033
     40 H143         1.1780     3.9750     2.9410 hc         1 D7E       0.018033
     41 H15          3.8070     3.0600     2.9210 hn         1 D7E       0.373800
     42 H20          3.4300     6.8140     2.7300 ha         1 D7E       0.125000
     43 H24          1.6610     4.9070    -0.6580 ha         1 D7E       0.125000
     44 H21          1.6970     8.5660     2.6500 ha         1 D7E       0.121000
     45 H23         -0.0740     6.6580    -0.7370 ha         1 D7E       0.121000
@<TRIPOS>BOND
     1     1     2 1   
     2     1    29 1   
     3     1    30 1   
     4     1    31 1   
     5     2     3 1   
     6     2    32 1   
     7     2    33 1   
     8     3     4 1   
     9     3    11 1   
    10     4     5 ar  
    11     4     9 ar  
    12     5     6 ar  
    13     5    34 1   
    14     6     7 ar  
    15     6    25 1   
    16     7     8 ar  
    17     7    35 1   
    18     8     9 ar  
    19     8    36 1   
    20     9    10 1   
    21    10    11 2   
    22    11    12 1   
    23    12    13 1   
    24    12    14 1   
    25    12    37 1   
    26    13    38 1   
    27    13    39 1   
    28    13    40 1   
    29    14    15 1   
    30    14    41 1   
    31    15    16 2   
    32    15    17 2   
    33    15    18 1   
    34    18    19 ar  
    35    18    23 ar  
    36    19    20 ar  
    37    19    42 1   
    38    20    21 ar  
    39    20    44 1   
    40    21    22 ar  
    41    21    24 1   
    42    22    23 ar  
    43    22    45 1   
    44    23    43 1   
    45    25    26 1   
    46    25    27 1   
    47    25    28 1   
@<TRIPOS>SUBSTRUCTURE
     1 D7E         1 TEMP              0 ****  ****    0 ROOT
