@<TRIPOS>MOLECULE
molecule
   45    47     1     0     0
SMALL
bcc


@<TRIPOS>ATOM
      1 C1           0.0000     0.0000     0.0000 c3         1 D7E      -0.120100
      2 C2           1.5300     0.0000     0.0000 c3         1 D7E       0.040300
      3 N3           2.0190     0.0000     1.3810 na         1 D7E      -0.143300
      4 C4           2.2920    -1.1130     2.1520 ca         1 D7E      -0.099200
      5 C5           2.2160    -2.4810     1.9350 ca         1 D7E      -0.069000
      6 C6           2.5730    -3.3530     2.9430 ca         1 D7E      -0.169300
      7 C7           3.0070    -2.8710     4.1690 ca         1 D7E      -0.107000
      8 C8           3.0880    -1.5270     4.4000 ca         1 D7E      -0.073000
      9 C9           2.7310    -0.6240     3.3940 ca         1 D7E       0.116400
     10 N10          2.7050     0.7310     3.3180 nc         1 D7E      -0.605100
     11 C11          2.2930     1.0950     2.1400 cd         1 D7E       0.427800
     12 C12          2.1390     2.5230     1.6810 c3         1 D7E       0.248200
     13 C14          0.8910     3.1320     2.3250 c3         1 D7E      -0.113100
     14 N15          3.3180     3.2930     2.0790 n7         1 D7E      -0.904100
     15 S16          3.8880     4.5010     1.0990 sy         1 D7E       1.424200
     16 O17          5.0030     5.0710     1.7710 o          1 D7E      -0.631300
     17 O18          3.9650     3.9540    -0.2090 o          1 D7E      -0.631300
     18 C19          2.6490     5.7530     1.0420 ca         1 D7E      -0.318500
     19 C20          2.6600     6.7800     1.9690 ca         1 D7E      -0.019500
     20 C21          1.6880     7.7620     1.9240 ca         1 D7E      -0.145500
     21 C22          0.7050     7.7180     0.9520 ca         1 D7E       0.079400
     22 C23          0.6940     6.6910     0.0250 ca         1 D7E      -0.145500
     23 C24          1.6690     5.7120     0.0670 ca         1 D7E      -0.019500
     24 Cl25        -0.5160     8.9510     0.8960 cl         1 D7E      -0.093400
     25 C26          2.4910    -4.8400     2.7100 c3         1 D7E       0.677200
     26 F27          3.7080    -5.2990     2.1970 f          1 D7E      -0.223967
     27 F28          2.2210    -5.4870     3.9200 f          1 D7E      -0.223967
     28 F29          1.4670    -5.1130     1.7960 f          1 D7E      -0.223967
     29 H11C        -0.3610    -0.0580     1.0200 hc         1 D7E       0.050700
     30 H12C        -0.3610     0.9120    -0.4590 hc         1 D7E       0.050700
     31 H13C        -0.3610    -0.8540    -0.5600 hc         1 D7E       0.050700
     32 H21C         1.8910     0.8840    -0.5110 h1         1 D7E       0.069700
     33 H22C         1.8910    -0.8850    -0.5110 h1         1 D7E       0.069700
     34 H5           1.8780    -2.8630     0.9800 ha         1 D7E       0.144000
     35 H7           3.2840    -3.5670     4.9520 ha         1 D7E       0.151000
     36 H8           3.4290    -1.1610     5.3620 ha         1 D7E       0.151000
     37 H12          2.0380     2.5470     0.6030 h1         1 D7E       0.072700
     38 H141         0.2110     3.4660     1.5500 hc         1 D7E       0.053700
     39 H142         0.4000     2.3870     2.9380 hc         1 D7E       0.053700
     40 H143         1.1780     3.9750     2.9410 hc         1 D7E       0.053700
     41 H15          3.8070     3.0600     2.9210 hn         1 D7E       0.479800
     42 H20          3.4300     6.8140     2.7300 ha         1 D7E       0.155500
     43 H24          1.6610     4.9070    -0.6580 ha         1 D7E       0.155500
     44 H21          1.6970     8.5660     2.6500 ha         1 D7E       0.151500
     45 H23         -0.0740     6.6580    -0.7370 ha         1 D7E       0.151500
@<TRIPOS>BOND
     1     1     2 1
     2     2     3 1
     3     3     4 1
     4     3    11 1
     5     4     5 ar
     6     4     9 ar
     7     5     6 ar
     8     6     7 ar
     9     6    25 1
    10     7     8 ar
    11     8     9 ar
    12     9    10 1
    13    10    11 2
    14    11    12 1
    15    12    13 1
    16    12    14 1
    17    14    15 1
    18    15    16 2
    19    15    17 2
    20    15    18 1
    21    18    19 ar
    22    18    23 ar
    23    19    20 ar
    24    20    21 ar
    25    21    22 ar
    26    21    24 1
    27    22    23 ar
    28    25    26 1
    29    25    27 1
    30    25    28 1
    31     1    29 1
    32     1    30 1
    33     1    31 1
    34     2    32 1
    35     2    33 1
    36     5    34 1
    37     7    35 1
    38     8    36 1
    39    12    37 1
    40    13    38 1
    41    13    39 1
    42    13    40 1
    43    14    41 1
    44    19    42 1
    45    23    43 1
    46    20    44 1
    47    22    45 1
@<TRIPOS>SUBSTRUCTURE
     1 D7E         1 TEMP              0 ****  ****    0 ROOT
