@<TRIPOS>MOLECULE
D7G
   72    73     1     0     0
SMALL
bcc


@<TRIPOS>ATOM
      1 O1           0.0000     0.0000     0.0000 o          1 D7G      -0.537100
      2 C1           1.2080     0.0000     0.0000 c          1 D7G       0.542100
      3 C2           1.9540    -0.0010    -1.2910 c          1 D7G       0.480100
      4 O2           3.1670    -0.0020    -1.2920 o          1 D7G      -0.629100
      5 N1           1.2790    -0.0020    -2.4580 ns         1 D7G      -0.101900
      6 C3           2.0110    -0.0030    -3.7270 cx         1 D7G      -0.062300
      7 C4           1.2990    -0.5770    -4.9540 cx         1 D7G      -0.087900
      8 C5           1.5140     0.9330    -4.8310 cx         1 D7G      -0.087900
      9 C6           1.9610     0.0000     1.3050 c3         1 D7G      -0.060300
     10 N2           1.0500     0.3590     2.3950 ns         1 D7G      -0.179900
     11 C7           0.8160     1.6550     2.6780 c          1 D7G       0.576100
     12 O3           1.2820     2.5240     1.9710 o          1 D7G      -0.653100
     13 C8          -0.0230     2.0270     3.8730 c3         1 D7G      -0.043300
     14 N3           0.3020     3.3910     4.2940 ns         1 D7G      -0.153900
     15 C9           0.0690     3.7790     5.5640 c          1 D7G       0.685100
     16 O4          -0.4970     3.0280     6.3340 o          1 D7G      -0.674000
     17 O5           0.4630     4.9980     5.9790 os         1 D7G      -0.421900
     18 C10          0.2110     5.4150     7.3470 c3         1 D7G       0.245400
     19 C11          0.7540     6.8290     7.5560 c3         1 D7G       0.188400
     20 O6           0.0220     7.7470     6.7400 os         1 D7G      -0.380600
     21 C12          0.5740     9.0430     6.9800 c3         1 D7G       0.193400
     22 C13         -0.1680    10.0770     6.1320 c3         1 D7G       0.192400
     23 O7          -1.5280    10.1590     6.5640 os         1 D7G      -0.391600
     24 C14         -2.1660    11.1360     5.7390 c3         1 D7G       0.240700
     25 C15         -1.5050     1.9470     3.5000 c3         1 D7G      -0.040400
     26 C16         -1.8760     0.4940     3.1950 c3         1 D7G      -0.076700
     27 C17         -1.7560    -0.3430     4.4690 c3         1 D7G       0.005400
     28 C18         -3.3150     0.4350     2.6780 c3         1 D7G       0.005400
     29 C19          2.5390    -1.3940     1.5600 c3         1 D7G       0.028900
     30 C20          3.3940    -1.3630     2.8010 ca         1 D7G      -0.104300
     31 C21          2.8300    -1.6230     4.0360 ca         1 D7G      -0.096500
     32 C22          3.6150    -1.5950     5.1730 ca         1 D7G      -0.095000
     33 C23          4.9630    -1.3070     5.0770 ca         1 D7G      -0.097000
     34 C24          5.5270    -1.0480     3.8420 ca         1 D7G      -0.095000
     35 C25          4.7430    -1.0810     2.7030 ca         1 D7G      -0.096500
     36 HN1          0.2780     0.0070    -2.4580 hn         1 D7G       0.185500
     37 H3           3.0830    -0.1570    -3.7130 h1         1 D7G       0.098700
     38 H41          0.2850    -0.9200    -4.7880 hc         1 D7G       0.050200
     39 H42          1.9350    -1.0830    -5.6700 hc         1 D7G       0.050200
     40 H51          2.2810     1.3490    -5.4720 hc         1 D7G       0.050200
     41 H52          0.6310     1.5120    -4.5900 hc         1 D7G       0.050200
     42 H6           2.7680     0.7220     1.2560 h1         1 D7G       0.091700
     43 HN2          0.6280    -0.3590     2.9500 hn         1 D7G       0.196500
     44 H8           0.1830     1.3400     4.6860 h1         1 D7G       0.065700
     45 HN3          0.7130     4.0310     3.6440 hn         1 D7G       0.200500
     46 H101         0.7050     4.7340     8.0290 h1         1 D7G       0.015700
     47 H102        -0.8560     5.4060     7.5360 h1         1 D7G       0.015700
     48 H111         0.6470     7.1070     8.5980 h1         1 D7G       0.001200
     49 H112         1.8020     6.8580     7.2810 h1         1 D7G       0.001200
     50 H121         1.6240     9.0430     6.7130 h1         1 D7G      -0.001800
     51 H122         0.4690     9.2920     8.0290 h1         1 D7G      -0.001800
     52 H131        -0.1380     9.7800     5.0900 h1         1 D7G      -0.000300
     53 H132         0.3060    11.0450     6.2450 h1         1 D7G      -0.000300
     54 H141        -2.0820    10.8420     4.7000 h1         1 D7G      -0.012633
     55 H142        -1.6870    12.0980     5.8810 h1         1 D7G      -0.012633
     56 H143        -3.2120    11.2110     6.0100 h1         1 D7G      -0.012633
     57 H151        -2.1050     2.3070     4.3270 hc         1 D7G       0.039200
     58 H152        -1.6910     2.5590     2.6260 hc         1 D7G       0.039200
     59 H16         -1.2060     0.1020     2.4400 hc         1 D7G       0.035700
     60 H171        -2.3400     0.1150     5.2580 hc         1 D7G       0.005533
     61 H172        -0.7170    -0.3930     4.7710 hc         1 D7G       0.005533
     62 H173        -2.1250    -1.3430     4.2800 hc         1 D7G       0.005533
     63 H181        -3.9880     0.8050     3.4420 hc         1 D7G       0.005533
     64 H182        -3.4050     1.0470     1.7890 hc         1 D7G       0.005533
     65 H183        -3.5700    -0.5900     2.4380 hc         1 D7G       0.005533
     66 H191         1.7290    -2.1010     1.6970 hc         1 D7G       0.035700
     67 H192         3.1420    -1.6960     0.7130 hc         1 D7G       0.035700
     68 H21          1.7730    -1.8490     4.1120 ha         1 D7G       0.108500
     69 H22          3.1730    -1.7980     6.1410 ha         1 D7G       0.105000
     70 H23          5.5770    -1.2840     5.9690 ha         1 D7G       0.104000
     71 H24          6.5850    -0.8250     3.7650 ha         1 D7G       0.105000
     72 H25          5.1860    -0.8780     1.7360 ha         1 D7G       0.108500
@<TRIPOS>BOND
     1     1     2 2   
     2     2     3 1   
     3     2     9 1   
     4     3     4 2   
     5     3     5 1   
     6     5     6 1   
     7     5    36 1   
     8     6     7 1   
     9     6     8 1   
    10     6    37 1   
    11     7     8 1   
    12     7    38 1   
    13     7    39 1   
    14     8    40 1   
    15     8    41 1   
    16     9    10 1   
    17     9    29 1   
    18     9    42 1   
    19    10    11 1   
    20    10    43 1   
    21    11    12 2   
    22    11    13 1   
    23    13    14 1   
    24    13    25 1   
    25    13    44 1   
    26    14    15 1   
    27    14    45 1   
    28    15    16 2   
    29    15    17 1   
    30    17    18 1   
    31    18    19 1   
    32    18    46 1   
    33    18    47 1   
    34    19    20 1   
    35    19    48 1   
    36    19    49 1   
    37    20    21 1   
    38    21    22 1   
    39    21    50 1   
    40    21    51 1   
    41    22    23 1   
    42    22    52 1   
    43    22    53 1   
    44    23    24 1   
    45    24    54 1   
    46    24    55 1   
    47    24    56 1   
    48    25    26 1   
    49    25    57 1   
    50    25    58 1   
    51    26    27 1   
    52    26    28 1   
    53    26    59 1   
    54    27    60 1   
    55    27    61 1   
    56    27    62 1   
    57    28    63 1   
    58    28    64 1   
    59    28    65 1   
    60    29    30 1   
    61    29    66 1   
    62    29    67 1   
    63    30    31 ar  
    64    30    35 ar  
    65    31    32 ar  
    66    31    68 1   
    67    32    33 ar  
    68    32    69 1   
    69    33    34 ar  
    70    33    70 1   
    71    34    35 ar  
    72    34    71 1   
    73    35    72 1   
@<TRIPOS>SUBSTRUCTURE
     1 D7G         1 TEMP              0 ****  ****    0 ROOT
