@<TRIPOS>MOLECULE
D7H
   62    66     1     0     0
SMALL
bcc


@<TRIPOS>ATOM
      1 C10          0.0000     0.0000     0.0000 c3         1 D7H       0.113800
      2 C17         -2.4870     1.4600    -0.6930 ca         1 D7H      -0.118300
      3 C20         -2.2660     2.3970    -2.8860 ca         1 D7H      -0.099000
      4 C22         -3.4730     1.8300    -3.2500 ca         1 D7H      -0.091000
      5 C24         -4.1890     1.0820    -2.3340 ca         1 D7H      -0.070000
      6 C26         -3.6940     0.8930    -1.0580 ca         1 D7H      -0.099300
      7 C01          3.8240    -1.5250     0.8080 c3         1 D7H      -0.137100
      8 C05          3.0070    -0.7580     1.8160 c          1 D7H       0.596100
      9 O06          3.2830    -0.8220     2.9950 o          1 D7H      -0.628100
     10 N07          1.9700     0.0000     1.4070 n          1 D7H       0.012000
     11 C08          1.5340     0.0000     0.0000 c3         1 D7H       0.057700
     12 N13         -0.4790     1.2210     0.6540 nh         1 D7H      -0.339000
     13 C14         -1.9470     1.2540     0.6980 c3         1 D7H       0.183100
     14 C18         -1.7730     2.2130    -1.6070 ca         1 D7H      -0.097000
     15 C27         -4.4700     0.0680    -0.0630 c3         1 D7H       0.283700
     16 O30         -5.6390    -0.4610    -0.6930 oh         1 D7H      -0.585800
     17 C32          0.0640     1.4080     1.9270 ca         1 D7H      -0.006400
     18 C33         -0.6190     2.2080     2.8330 ca         1 D7H      -0.113000
     19 C35         -0.0990     2.4200     4.1090 cp         1 D7H      -0.103000
     20 C36          1.1090     1.8290     4.4760 ca         1 D7H      -0.067000
     21 C38          1.7860     1.0320     3.5770 ca         1 D7H      -0.135000
     22 C40          1.2680     0.8190     2.3070 ca         1 D7H      -0.045400
     23 C41         -0.8310     3.2740     5.0740 cp         1 D7H      -0.130600
     24 C42         -2.1000     3.7770     4.7690 ca         1 D7H       0.417700
     25 N44         -2.7190     4.5340     5.6550 nb         1 D7H      -0.557500
     26 C45         -2.1530     4.8170     6.8200 ca         1 D7H       0.432500
     27 N46         -0.9530     4.3600     7.1460 nb         1 D7H      -0.557500
     28 C47         -0.2720     3.5940     6.3170 ca         1 D7H       0.417700
     29 C49         -2.8850     5.6720     7.7870 c          1 D7H       0.244600
     30 N50         -2.3290     5.9730     8.9770 nz         1 D7H       0.214600
     31 O53         -3.9870     6.1010     7.5050 o          1 D7H      -0.393100
     32 C54          2.0560    -1.2530    -0.7070 cx         1 D7H      -0.189700
     33 C56          1.6470    -1.4630    -2.1660 cx         1 D7H      -0.063400
     34 C59          3.0810    -1.0580    -1.8240 cx         1 D7H      -0.063400
     35 H1          -0.3610    -0.8660     0.5420 h1         1 D7H       0.042200
     36 H2          -0.3610    -0.0280    -1.0210 h1         1 D7H       0.042200
     37 H3          -1.7050     2.9850    -3.6020 ha         1 D7H       0.107000
     38 H4          -3.8600     1.9760    -4.2510 ha         1 D7H       0.110000
     39 H5          -5.1350     0.6370    -2.6200 ha         1 D7H       0.131000
     40 H6           3.9480    -0.9270    -0.0870 hc         1 D7H       0.052033
     41 H7           4.7960    -1.7510     1.2280 hc         1 D7H       0.052033
     42 H8           3.3150    -2.4480     0.5580 hc         1 D7H       0.052033
     43 H9           1.9010     0.8900    -0.4980 h1         1 D7H       0.052700
     44 H10         -2.2720     2.0670     1.3350 h1         1 D7H       0.028700
     45 H11         -2.3180     0.3160     1.0930 h1         1 D7H       0.028700
     46 H12         -0.8270     2.6570    -1.3210 ha         1 D7H       0.117000
     47 H13         -3.8510    -0.7470     0.2910 h1         1 D7H      -0.010800
     48 H14         -4.7610     0.6910     0.7740 h1         1 D7H      -0.010800
     49 H15         -6.1290    -0.9710    -0.0690 ho         1 D7H       0.394000
     50 H16         -1.5570     2.6680     2.5480 ha         1 D7H       0.130000
     51 H17          1.5140     1.9920     5.4680 ha         1 D7H       0.107000
     52 H18          2.7250     0.5730     3.8620 ha         1 D7H       0.195000
     53 H19         -2.4840     3.7020     3.7590 h4         1 D7H       0.018600
     54 H20          0.7700     3.3730     6.5160 h4         1 D7H       0.018600
     55 H21         -2.1510     5.1300     9.4850 hn         1 D7H       0.246133
     56 H22         -2.9540     6.5530     9.5000 hn         1 D7H       0.246133
     57 H23          2.1760    -2.1650    -0.1350 hc         1 D7H       0.102700
     58 H24          1.5110    -2.4930    -2.4710 hc         1 D7H       0.054700
     59 H25          1.0310    -0.6820    -2.5960 hc         1 D7H       0.054700
     60 H26          3.3420    -0.0300    -2.0450 hc         1 D7H       0.054700
     61 H27          3.8230    -1.8420    -1.9200 hc         1 D7H       0.054700
     62 H503        -1.4660     6.4580     8.8280 hn         1 D7H       0.246133
@<TRIPOS>BOND
     1     1    11 1   
     2     1    12 1   
     3     1    35 1   
     4     1    36 1   
     5     2     6 ar  
     6     2    13 1   
     7     2    14 ar  
     8     3     4 ar  
     9     3    14 ar  
    10     3    37 1   
    11     4     5 ar  
    12     4    38 1   
    13     5     6 ar  
    14     5    39 1   
    15     6    15 1   
    16     7     8 1   
    17     7    40 1   
    18     7    41 1   
    19     7    42 1   
    20     8     9 2   
    21     8    10 1   
    22    10    11 1   
    23    10    22 1   
    24    11    32 1   
    25    11    43 1   
    26    12    13 1   
    27    12    17 1   
    28    13    44 1   
    29    13    45 1   
    30    14    46 1   
    31    15    16 1   
    32    15    47 1   
    33    15    48 1   
    34    16    49 1   
    35    17    18 ar  
    36    17    22 ar  
    37    18    19 ar  
    38    18    50 1   
    39    19    20 ar  
    40    19    23 1   
    41    20    21 ar  
    42    20    51 1   
    43    21    22 ar  
    44    21    52 1   
    45    23    24 ar  
    46    23    28 ar  
    47    24    25 ar  
    48    24    53 1   
    49    25    26 ar  
    50    26    27 ar  
    51    26    29 1   
    52    27    28 ar  
    53    28    54 1   
    54    29    30 1   
    55    29    31 2   
    56    30    55 1   
    57    30    56 1   
    58    30    62 1   
    59    32    33 1   
    60    32    34 1   
    61    32    57 1   
    62    33    34 1   
    63    33    58 1   
    64    33    59 1   
    65    34    60 1   
    66    34    61 1   
@<TRIPOS>SUBSTRUCTURE
     1 D7H         1 TEMP              0 ****  ****    0 ROOT
