@<TRIPOS>MOLECULE
molecule
   62    66     1     0     0
SMALL
bcc


@<TRIPOS>ATOM
      1 C10          0.0000     0.0000     0.0000 c3         1 D7H       0.153800
      2 C17         -2.4870     1.4600    -0.6930 ca         1 D7H      -0.110300
      3 C20         -2.2660     2.3970    -2.8860 ca         1 D7H      -0.129000
      4 C22         -3.4730     1.8300    -3.2500 ca         1 D7H      -0.120000
      5 C24         -4.1890     1.0820    -2.3340 ca         1 D7H      -0.096000
      6 C26         -3.6940     0.8930    -1.0580 ca         1 D7H      -0.084300
      7 C01          3.8240    -1.5250     0.8080 c3         1 D7H      -0.186100
      8 C05          3.0070    -0.7580     1.8160 c          1 D7H       0.675100
      9 O06          3.2830    -0.8220     2.9950 o          1 D7H      -0.594100
     10 N07          1.9700     0.0000     1.4070 n          1 D7H      -0.376000
     11 C08          1.5340     0.0000     0.0000 c3         1 D7H       0.143700
     12 N13         -0.4790     1.2210     0.6540 nh         1 D7H      -0.595000
     13 C14         -1.9470     1.2540     0.6980 c3         1 D7H       0.211100
     14 C18         -1.7730     2.2130    -1.6070 ca         1 D7H      -0.114000
     15 C27         -4.4700     0.0680    -0.0630 c3         1 D7H       0.187700
     16 O30         -5.6390    -0.4610    -0.6930 oh         1 D7H      -0.603800
     17 C32          0.0640     1.4080     1.9270 ca         1 D7H       0.080600
     18 C33         -0.6190     2.2080     2.8330 ca         1 D7H      -0.130000
     19 C35         -0.0990     2.4200     4.1090 cp         1 D7H      -0.100000
     20 C36          1.1090     1.8290     4.4760 ca         1 D7H      -0.101000
     21 C38          1.7860     1.0320     3.5770 ca         1 D7H      -0.139000
     22 C40          1.2680     0.8190     2.3070 ca         1 D7H       0.080600
     23 C41         -0.8310     3.2740     5.0740 cp         1 D7H      -0.160600
     24 C42         -2.1000     3.7770     4.7690 ca         1 D7H       0.450700
     25 N44         -2.7190     4.5340     5.6550 nb         1 D7H      -0.690500
     26 C45         -2.1530     4.8170     6.8200 ca         1 D7H       0.543500
     27 N46         -0.9530     4.3600     7.1460 nb         1 D7H      -0.690500
     28 C47         -0.2720     3.5940     6.3170 ca         1 D7H       0.450700
     29 C49         -2.8850     5.6720     7.7870 c          1 D7H       0.423600
     30 N50         -2.3290     5.9730     8.9770 nz         1 D7H      -0.670400
     31 O53         -3.9870     6.1010     7.5050 o          1 D7H      -0.375100
     32 C54          2.0560    -1.2530    -0.7070 cx         1 D7H      -0.189700
     33 C56          1.6470    -1.4630    -2.1660 cx         1 D7H      -0.125400
     34 C59          3.0810    -1.0580    -1.8240 cx         1 D7H      -0.125400
     35 H1          -0.3610    -0.8660     0.5420 h1         1 D7H       0.068200
     36 H2          -0.3610    -0.0280    -1.0210 h1         1 D7H       0.068200
     37 H3          -1.7050     2.9850    -3.6020 ha         1 D7H       0.136000
     38 H4          -3.8600     1.9760    -4.2510 ha         1 D7H       0.139000
     39 H5          -5.1350     0.6370    -2.6200 ha         1 D7H       0.161000
     40 H6           3.9480    -0.9270    -0.0870 hc         1 D7H       0.077700
     41 H7           4.7960    -1.7510     1.2280 hc         1 D7H       0.077700
     42 H8           3.3150    -2.4480     0.5580 hc         1 D7H       0.077700
     43 H9           1.9010     0.8900    -0.4980 h1         1 D7H       0.080700
     44 H10         -2.2720     2.0670     1.3350 h1         1 D7H       0.050700
     45 H11         -2.3180     0.3160     1.0930 h1         1 D7H       0.050700
     46 H12         -0.8270     2.6570    -1.3210 ha         1 D7H       0.145000
     47 H13         -3.8510    -0.7470     0.2910 h1         1 D7H       0.026200
     48 H14         -4.7610     0.6910     0.7740 h1         1 D7H       0.026200
     49 H15         -6.1290    -0.9710    -0.0690 ho         1 D7H       0.409000
     50 H16         -1.5570     2.6680     2.5480 ha         1 D7H       0.142000
     51 H17          1.5140     1.9920     5.4680 ha         1 D7H       0.132000
     52 H18          2.7250     0.5730     3.8620 ha         1 D7H       0.212000
     53 H19         -2.4840     3.7020     3.7590 h4         1 D7H       0.064600
     54 H20          0.7700     3.3730     6.5160 h4         1 D7H       0.064600
     55 H21         -2.1510     5.1300     9.4850 hn         1 D7H       0.482133
     56 H22         -2.9540     6.5530     9.5000 hn         1 D7H       0.482133
     57 H23          2.1760    -2.1650    -0.1350 hc         1 D7H       0.110700
     58 H24          1.5110    -2.4930    -2.4710 hc         1 D7H       0.084450
     59 H25          1.0310    -0.6820    -2.5960 hc         1 D7H       0.084450
     60 H26          3.3420    -0.0300    -2.0450 hc         1 D7H       0.084450
     61 H27          3.8230    -1.8420    -1.9200 hc         1 D7H       0.084450
     62 H503        -1.4660     6.4580     8.8280 hn         1 D7H       0.482133
@<TRIPOS>BOND
     1     7     8 1
     2    34    32 1
     3    34    33 1
     4     9     8 2
     5    21    20 ar
     6    21    22 ar
     7     8    10 1
     8    20    19 ar
     9    32    33 1
    10    32    11 1
    11    10    22 1
    12    10    11 1
    13    22    17 ar
    14    24    25 ar
    15    24    23 ar
    16    11     1 1
    17    25    26 ar
    18    19    23 1
    19    19    18 ar
    20    23    28 ar
    21    17    18 ar
    22    17    12 1
    23    26    29 1
    24    26    27 ar
    25    28    27 ar
    26    29    30 1
    27    29    31 2
    28     1    12 1
    29    12    13 1
    30    13     2 1
    31    14     2 ar
    32    14     3 ar
    33     2     6 ar
    34     3     4 ar
    35    16    15 1
    36     6    15 1
    37     6     5 ar
    38     4     5 ar
    39     1    35 1
    40     1    36 1
    41     3    37 1
    42     4    38 1
    43     5    39 1
    44     7    40 1
    45     7    41 1
    46     7    42 1
    47    11    43 1
    48    13    44 1
    49    13    45 1
    50    14    46 1
    51    15    47 1
    52    15    48 1
    53    16    49 1
    54    18    50 1
    55    20    51 1
    56    21    52 1
    57    24    53 1
    58    28    54 1
    59    30    55 1
    60    30    56 1
    61    32    57 1
    62    33    58 1
    63    33    59 1
    64    34    60 1
    65    34    61 1
    66    62    30 1
@<TRIPOS>SUBSTRUCTURE
     1 D7H         1 TEMP              0 ****  ****    0 ROOT
