@<TRIPOS>MOLECULE
molecule
   72    73     1     0     0
SMALL
bcc


@<TRIPOS>ATOM
      1 C01          0.0000     0.0000     0.0000 c3         1 D7J      -0.091600
      2 C02          1.5300     0.0000     0.0000 c3         1 D7J       0.158500
      3 C03          2.0400     0.0000     1.4420 c3         1 D7J      -0.091600
      4 C05          3.3450    -0.9640    -1.2800 c3         1 D7J       0.109500
      5 C06          4.0750    -2.2980    -1.4450 c3         1 D7J       0.021700
      6 C08          5.2510    -4.5670    -0.2060 c3         1 D7J      -0.016300
      7 C09          5.5960    -5.3040     1.0890 c3         1 D7J       0.157700
      8 C10          6.4260    -6.5480     0.7620 c3         1 D7J      -0.049100
      9 C11          6.8700    -7.2060     2.0430 ca         1 D7J      -0.066300
     10 C12          6.0780    -8.1740     2.6320 ca         1 D7J      -0.115000
     11 C13          6.4840    -8.7780     3.8080 ca         1 D7J      -0.120500
     12 C14          7.6830    -8.4130     4.3930 ca         1 D7J      -0.129000
     13 C15          8.4750    -7.4460     3.8040 ca         1 D7J      -0.120500
     14 C16          8.0710    -6.8470     2.6250 ca         1 D7J      -0.115000
     15 C21          3.2890    -6.4630     5.1590 c3         1 D7J       0.179800
     16 C22          3.7170    -5.1560     5.8290 c3         1 D7J      -0.108100
     17 C23          4.3070    -7.5590     5.4790 c3         1 D7J      -0.108100
     18 C24          1.9130    -6.8780     5.6830 c3         1 D7J      -0.108100
     19 C25          3.1880    -0.3080    -2.6290 c          1 D7J       0.625100
     20 C29          5.2540     1.9120    -4.7440 ca         1 D7J      -0.247600
     21 C30          6.3200     1.3320    -5.4130 ca         1 D7J      -0.078000
     22 C31          7.4350     2.1130    -5.6790 ca         1 D7J      -0.256300
     23 C32          7.4450     3.4340    -5.2740 ca         1 D7J       0.428200
     24 C34          5.3330     3.2410    -4.3740 ca         1 D7J       0.435200
     25 N04          2.0200    -1.1990    -0.6930 n7         1 D7J      -0.791200
     26 N17          4.3610    -5.7060     1.7650 ns         1 D7J      -0.569900
     27 N27          4.1740     0.4680    -3.1200 ns         1 D7J      -0.581900
     28 N33          6.4110     3.9520    -4.6390 nb         1 D7J      -0.688000
     29 O19          5.3760    -5.7440     3.7400 o          1 D7J      -0.608000
     30 O20          3.2210    -6.2710     3.7210 os         1 D7J      -0.436900
     31 O26          2.1740    -0.4800    -3.2720 o          1 D7J      -0.609100
     32 S07          4.3950    -3.0170     0.1900 ss         1 D7J      -0.296200
     33 H1          -0.3610     0.8200     0.6090 hc         1 D7J       0.041533
     34 H2          -0.3610    -0.9370     0.4060 hc         1 D7J       0.041533
     35 H3          -0.3610     0.1170    -1.0150 hc         1 D7J       0.041533
     36 H4           1.8910     0.8850    -0.5100 h1         1 D7J       0.023700
     37 H5           1.7590    -0.9280     1.9240 hc         1 D7J       0.041533
     38 H6           3.1190     0.0950     1.4430 hc         1 D7J       0.041533
     39 H7           1.6040     0.8330     1.9790 hc         1 D7J       0.041533
     40 H8           3.9190    -0.3160    -0.6290 h1         1 D7J       0.079700
     41 H9           5.0150    -2.1350    -1.9580 h1         1 D7J       0.062700
     42 H10          3.4610    -2.9770    -2.0240 h1         1 D7J       0.062700
     43 H11          6.1620    -4.3470    -0.7500 h1         1 D7J       0.063200
     44 H12          4.6080    -5.1890    -0.8160 h1         1 D7J       0.063200
     45 H13          6.1660    -4.6490     1.7370 h1         1 D7J       0.095700
     46 H14          5.8250    -7.2430     0.1890 hc         1 D7J       0.052200
     47 H15          7.2960    -6.2590     0.1840 hc         1 D7J       0.052200
     48 H16          5.1390    -8.4580     2.1730 ha         1 D7J       0.124500
     49 H17          5.8630    -9.5360     4.2700 ha         1 D7J       0.125000
     50 H18          8.0000    -8.8850     5.3160 ha         1 D7J       0.124000
     51 H19          9.4150    -7.1630     4.2610 ha         1 D7J       0.125000
     52 H20          8.6920    -6.0890     2.1630 ha         1 D7J       0.124500
     53 H21          3.2850    -4.3180     5.2950 hc         1 D7J       0.049811
     54 H22          3.3730    -5.1460     6.8560 hc         1 D7J       0.049811
     55 H23          4.7980    -5.0770     5.8090 hc         1 D7J       0.049811
     56 H24          5.3090    -7.1490     5.4230 hc         1 D7J       0.049811
     57 H25          4.2070    -8.3660     4.7630 hc         1 D7J       0.049811
     58 H26          4.1280    -7.9380     6.4780 hc         1 D7J       0.049811
     59 H27          1.5990    -7.7910     5.1920 hc         1 D7J       0.049811
     60 H28          1.1960    -6.0920     5.4770 hc         1 D7J       0.049811
     61 H29          1.9690    -7.0440     6.7520 hc         1 D7J       0.049811
     62 H30          3.1560     1.7570    -4.4170 h1         1 D7J       0.062200
     63 H31          3.8850     0.3430    -5.1890 h1         1 D7J       0.062200
     64 H32          6.2850     0.2940    -5.7190 ha         1 D7J       0.142000
     65 H33          8.2870     1.6930    -6.2000 ha         1 D7J       0.142000
     66 H34          8.3130     4.0500    -5.4760 h4         1 D7J       0.027100
     67 H35          4.5040     3.7010    -3.8510 h4         1 D7J       0.028100
     68 H36          1.3760    -1.4540    -1.4150 hn         1 D7J       0.382800
     69 H38          3.5100    -5.7930     1.2440 hn         1 D7J       0.328500
     70 H39          5.0010     0.6270    -2.5800 hn         1 D7J       0.320500
     71 C18          4.3560    -5.9010     3.0990 c          1 D7J       0.754100
     72 C28          4.0200     1.1050    -4.4310 c3         1 D7J       0.162300
@<TRIPOS>BOND
     1    18    15 1
     2    29    71 2
     3    12    11 ar
     4    12    13 ar
     5    17    15 1
     6    11    10 ar
     7    15    16 1
     8    15    30 1
     9    71    30 1
    10    71    26 1
    11    13    14 ar
    12    10     9 ar
    13    14     9 ar
    14     9     8 1
    15    26     7 1
    16     8     7 1
    17     7     6 1
    18    23    22 ar
    19    23    28 ar
    20    22    21 ar
    21     6    32 1
    22    28    24 ar
    23    21    20 ar
    24    32     5 1
    25    24    20 ar
    26    20    72 1
    27     4     5 1
    28     4    25 1
    29     4    19 1
    30    27    72 1
    31    27    19 1
    32    25     2 1
    33    19    31 2
    34     1     2 1
    35     2     3 1
    36     1    33 1
    37     1    34 1
    38     1    35 1
    39     2    36 1
    40     3    37 1
    41     3    38 1
    42     3    39 1
    43     4    40 1
    44     5    41 1
    45     5    42 1
    46     6    43 1
    47     6    44 1
    48     7    45 1
    49     8    46 1
    50     8    47 1
    51    10    48 1
    52    11    49 1
    53    12    50 1
    54    13    51 1
    55    14    52 1
    56    16    53 1
    57    16    54 1
    58    16    55 1
    59    17    56 1
    60    17    57 1
    61    17    58 1
    62    18    59 1
    63    18    60 1
    64    18    61 1
    65    72    62 1
    66    72    63 1
    67    21    64 1
    68    22    65 1
    69    23    66 1
    70    24    67 1
    71    25    68 1
    72    26    69 1
    73    27    70 1
@<TRIPOS>SUBSTRUCTURE
     1 D7J         1 TEMP              0 ****  ****    0 ROOT
