@<TRIPOS>MOLECULE
D7J
   72    73     1     0     0
SMALL
bcc


@<TRIPOS>ATOM
      1 C01          0.0000     0.0000     0.0000 c3         1 D7J      -0.000600
      2 C02          1.5300     0.0000     0.0000 c3         1 D7J       0.115500
      3 C03          2.0400     0.0000     1.4420 c3         1 D7J      -0.000600
      4 C05          3.3450    -0.9640    -1.2800 c3         1 D7J       0.066500
      5 C06          4.0750    -2.2980    -1.4450 c3         1 D7J       0.100700
      6 C08          5.2510    -4.5670    -0.2060 c3         1 D7J       0.059700
      7 C09          5.5960    -5.3040     1.0890 c3         1 D7J       0.054700
      8 C10          6.4260    -6.5480     0.7620 c3         1 D7J       0.013900
      9 C11          6.8700    -7.2060     2.0430 ca         1 D7J      -0.076300
     10 C12          6.0780    -8.1740     2.6320 ca         1 D7J      -0.090000
     11 C13          6.4840    -8.7780     3.8080 ca         1 D7J      -0.093000
     12 C14          7.6830    -8.4130     4.3930 ca         1 D7J      -0.101000
     13 C15          8.4750    -7.4460     3.8040 ca         1 D7J      -0.093000
     14 C16          8.0710    -6.8470     2.6250 ca         1 D7J      -0.090000
     15 C21          3.2890    -6.4630     5.1590 c3         1 D7J       0.197800
     16 C22          3.7170    -5.1560     5.8290 c3         1 D7J      -0.038433
     17 C23          4.3070    -7.5590     5.4790 c3         1 D7J      -0.038433
     18 C24          1.9130    -6.8780     5.6830 c3         1 D7J      -0.038433
     19 C25          3.1880    -0.3080    -2.6290 c          1 D7J       0.539100
     20 C29          5.2540     1.9120    -4.7440 ca         1 D7J      -0.252600
     21 C30          6.3200     1.3320    -5.4130 ca         1 D7J      -0.051000
     22 C31          7.4350     2.1130    -5.6790 ca         1 D7J      -0.222300
     23 C32          7.4450     3.4340    -5.2740 ca         1 D7J       0.415200
     24 C34          5.3330     3.2410    -4.3740 ca         1 D7J       0.423200
     25 N04          2.0200    -1.1990    -0.6930 n7         1 D7J      -0.567200
     26 N17          4.3610    -5.7060     1.7650 ns         1 D7J      -0.173900
     27 N27          4.1740     0.4680    -3.1200 ns         1 D7J      -0.189900
     28 N33          6.4110     3.9520    -4.6390 nb         1 D7J      -0.580000
     29 O19          5.3760    -5.7440     3.7400 o          1 D7J      -0.655000
     30 O20          3.2210    -6.2710     3.7210 os         1 D7J      -0.416900
     31 O26          2.1740    -0.4800    -3.2720 o          1 D7J      -0.643100
     32 S07          4.3950    -3.0170     0.1900 ss         1 D7J      -0.377200
     33 H1          -0.3610     0.8200     0.6090 hc         1 D7J       0.009700
     34 H2          -0.3610    -0.9370     0.4060 hc         1 D7J       0.009700
     35 H3          -0.3610     0.1170    -1.0150 hc         1 D7J       0.009700
     36 H4           1.8910     0.8850    -0.5100 h1         1 D7J       0.003700
     37 H5           1.7590    -0.9280     1.9240 hc         1 D7J       0.009700
     38 H6           3.1190     0.0950     1.4430 hc         1 D7J       0.009700
     39 H7           1.6040     0.8330     1.9790 hc         1 D7J       0.009700
     40 H8           3.9190    -0.3160    -0.6290 h1         1 D7J       0.055700
     41 H9           5.0150    -2.1350    -1.9580 h1         1 D7J       0.036700
     42 H10          3.4610    -2.9770    -2.0240 h1         1 D7J       0.036700
     43 H11          6.1620    -4.3470    -0.7500 h1         1 D7J       0.040200
     44 H12          4.6080    -5.1890    -0.8160 h1         1 D7J       0.040200
     45 H13          6.1660    -4.6490     1.7370 h1         1 D7J       0.074700
     46 H14          5.8250    -7.2430     0.1890 hc         1 D7J       0.021700
     47 H15          7.2960    -6.2590     0.1840 hc         1 D7J       0.021700
     48 H16          5.1390    -8.4580     2.1730 ha         1 D7J       0.100000
     49 H17          5.8630    -9.5360     4.2700 ha         1 D7J       0.101000
     50 H18          8.0000    -8.8850     5.3160 ha         1 D7J       0.098000
     51 H19          9.4150    -7.1630     4.2610 ha         1 D7J       0.101000
     52 H20          8.6920    -6.0890     2.1630 ha         1 D7J       0.100000
     53 H21          3.2850    -4.3180     5.2950 hc         1 D7J       0.020922
     54 H22          3.3730    -5.1460     6.8560 hc         1 D7J       0.020922
     55 H23          4.7980    -5.0770     5.8090 hc         1 D7J       0.020922
     56 H24          5.3090    -7.1490     5.4230 hc         1 D7J       0.020922
     57 H25          4.2070    -8.3660     4.7630 hc         1 D7J       0.020922
     58 H26          4.1280    -7.9380     6.4780 hc         1 D7J       0.020922
     59 H27          1.5990    -7.7910     5.1920 hc         1 D7J       0.020922
     60 H28          1.1960    -6.0920     5.4770 hc         1 D7J       0.020922
     61 H29          1.9690    -7.0440     6.7520 hc         1 D7J       0.020922
     62 H30          3.1560     1.7570    -4.4170 h1         1 D7J       0.032200
     63 H31          3.8850     0.3430    -5.1890 h1         1 D7J       0.032200
     64 H32          6.2850     0.2940    -5.7190 ha         1 D7J       0.113000
     65 H33          8.2870     1.6930    -6.2000 ha         1 D7J       0.116000
     66 H34          8.3130     4.0500    -5.4760 h4         1 D7J      -0.017900
     67 H35          4.5040     3.7010    -3.8510 h4         1 D7J      -0.014900
     68 H36          1.3760    -1.4540    -1.4150 hn         1 D7J       0.289800
     69 H38          3.5100    -5.7930     1.2440 hn         1 D7J       0.184500
     70 H39          5.0010     0.6270    -2.5800 hn         1 D7J       0.181500
     71 C18          4.3560    -5.9010     3.0990 c          1 D7J       0.687100
     72 C28          4.0200     1.1050    -4.4310 c3         1 D7J       0.117300
@<TRIPOS>BOND
     1     1     2 1   
     2     1    33 1   
     3     1    34 1   
     4     1    35 1   
     5     2     3 1   
     6     2    25 1   
     7     2    36 1   
     8     3    37 1   
     9     3    38 1   
    10     3    39 1   
    11     4     5 1   
    12     4    19 1   
    13     4    25 1   
    14     4    40 1   
    15     5    32 1   
    16     5    41 1   
    17     5    42 1   
    18     6     7 1   
    19     6    32 1   
    20     6    43 1   
    21     6    44 1   
    22     7     8 1   
    23     7    26 1   
    24     7    45 1   
    25     8     9 1   
    26     8    46 1   
    27     8    47 1   
    28     9    10 ar  
    29     9    14 ar  
    30    10    11 ar  
    31    10    48 1   
    32    11    12 ar  
    33    11    49 1   
    34    12    13 ar  
    35    12    50 1   
    36    13    14 ar  
    37    13    51 1   
    38    14    52 1   
    39    15    16 1   
    40    15    17 1   
    41    15    18 1   
    42    15    30 1   
    43    16    53 1   
    44    16    54 1   
    45    16    55 1   
    46    17    56 1   
    47    17    57 1   
    48    17    58 1   
    49    18    59 1   
    50    18    60 1   
    51    18    61 1   
    52    19    27 1   
    53    19    31 2   
    54    20    21 ar  
    55    20    24 ar  
    56    20    72 1   
    57    21    22 ar  
    58    21    64 1   
    59    22    23 ar  
    60    22    65 1   
    61    23    28 ar  
    62    23    66 1   
    63    24    28 ar  
    64    24    67 1   
    65    25    68 1   
    66    26    69 1   
    67    26    71 1   
    68    27    70 1   
    69    27    72 1   
    70    29    71 2   
    71    30    71 1   
    72    62    72 1   
    73    63    72 1   
@<TRIPOS>SUBSTRUCTURE
     1 D7J         1 TEMP              0 ****  ****    0 ROOT
