@<TRIPOS>MOLECULE
D7M
   63    64     1     0     0
SMALL
bcc


@<TRIPOS>ATOM
      1 C20          0.0000     0.0000     0.0000 c          1 D7M       0.539100
      2 C10          4.2330    -0.1380     3.2130 c3         1 D7M       0.059700
      3 C12          2.0170     0.0000     1.4430 c3         1 D7M       0.099700
      4 C13          1.5070     0.0000     0.0000 c3         1 D7M       0.066500
      5 C15          2.0440     0.9880    -2.1440 c3         1 D7M       0.116500
      6 C16          1.9480     2.3370    -2.8780 c3         1 D7M      -0.029900
      7 C17          3.2470     2.4870    -3.6960 c3         1 D7M      -0.021900
      8 C18          3.7390     1.0320    -3.8980 c3         1 D7M      -0.021900
      9 C19          3.3990     0.3660    -2.5430 c3         1 D7M      -0.029900
     10 C01          9.8420     0.7270     6.2630 c3         1 D7M      -0.028433
     11 C02          9.0690    -0.4430     6.8750 c3         1 D7M       0.196800
     12 C03          9.6290    -1.7610     6.3360 c3         1 D7M      -0.028433
     13 C04          9.2160    -0.4100     8.3970 c3         1 D7M      -0.028433
     14 O05          7.6660    -0.3340     6.5220 os         1 D7M      -0.420900
     15 C06          7.3620    -0.3460     5.2100 c          1 D7M       0.686100
     16 O07          8.2470    -0.4470     4.3830 o          1 D7M      -0.657000
     17 N08          6.0770    -0.2480     4.8140 ns         1 D7M      -0.185900
     18 C09          5.7470    -0.2620     3.3870 c3         1 D7M       0.084000
     19 N14          1.9970     1.2000    -0.6910 n7         1 D7M      -0.565200
     20 O21         -0.6070     1.0480    -0.0680 o          1 D7M      -0.642100
     21 N22         -0.6740    -1.1650     0.0700 ns         1 D7M      -0.189900
     22 C23         -2.1380    -1.1650     0.0690 c3         1 D7M       0.117300
     23 C24         -2.6410    -2.5830     0.1550 ca         1 D7M      -0.252600
     24 C25         -2.8750    -3.1720     1.3870 ca         1 D7M      -0.051000
     25 C26         -3.3380    -4.4790     1.4170 ca         1 D7M      -0.222300
     26 C27         -3.5480    -5.1470     0.2260 ca         1 D7M       0.415200
     27 N28         -3.3140    -4.5550    -0.9290 nb         1 D7M      -0.580000
     28 C29         -2.8800    -3.3110    -0.9960 ca         1 D7M       0.423200
     29 H1           3.8940     0.7920     3.6530 h1         1 D7M       0.034700
     30 H2           3.7430    -0.9700     3.7050 h1         1 D7M       0.034700
     31 H3           1.5820    -0.8340     1.9790 h1         1 D7M       0.036700
     32 H4           1.7340     0.9270     1.9260 h1         1 D7M       0.036700
     33 H5           1.8680    -0.8840    -0.5110 h1         1 D7M       0.054700
     34 H6           1.2350     0.3390    -2.4560 h1         1 D7M       0.007700
     35 H7           1.0920     2.3370    -3.5420 hc         1 D7M       0.023450
     36 H8           1.8680     3.1440    -2.1600 hc         1 D7M       0.023450
     37 H9           3.0390     2.9520    -4.6530 hc         1 D7M       0.014950
     38 H10          3.9790     3.0600    -3.1400 hc         1 D7M       0.014950
     39 H11          3.1980     0.5540    -4.7060 hc         1 D7M       0.014950
     40 H12          4.8080     1.0120    -4.0770 hc         1 D7M       0.014950
     41 H13          4.1550     0.6040    -1.8050 hc         1 D7M       0.023450
     42 H14          3.3010    -0.7060    -2.6630 hc         1 D7M       0.023450
     43 H15         10.1010     0.4920     5.2380 hc         1 D7M       0.018811
     44 H16         10.7470     0.9000     6.8340 hc         1 D7M       0.018811
     45 H17          9.2260     1.6180     6.2840 hc         1 D7M       0.018811
     46 H18         10.4930    -2.0530     6.9210 hc         1 D7M       0.018811
     47 H19          9.9200    -1.6340     5.3000 hc         1 D7M       0.018811
     48 H20          8.8700    -2.5310     6.4050 hc         1 D7M       0.018811
     49 H21          8.6690    -1.2390     8.8310 hc         1 D7M       0.018811
     50 H22          8.8200     0.5230     8.7790 hc         1 D7M       0.018811
     51 H23         10.2640    -0.4920     8.6610 hc         1 D7M       0.018811
     52 H24          5.3490    -0.1650     5.4960 hn         1 D7M       0.174500
     53 H25          6.2360     0.5690     2.8950 h1         1 D7M       0.040700
     54 H26          6.0860    -1.1920     2.9480 h1         1 D7M       0.040700
     55 H27          1.3940     1.9730    -0.4870 hn         1 D7M       0.290800
     56 H29         -0.1740    -2.0310     0.1090 hn         1 D7M       0.181500
     57 H30         -2.5000    -0.6020     0.9210 h1         1 D7M       0.032700
     58 H31         -2.4990    -0.7090    -0.8450 h1         1 D7M       0.032700
     59 H32         -2.7020    -2.6240     2.3060 ha         1 D7M       0.113000
     60 H33         -3.5320    -4.9710     2.3630 ha         1 D7M       0.116000
     61 H34         -3.9070    -6.1690     0.2410 h4         1 D7M      -0.017900
     62 H35         -2.6990    -2.8590    -1.9640 h4         1 D7M      -0.014900
     63 S11          3.8240    -0.1560     1.4450 ss         1 D7M      -0.364200
@<TRIPOS>BOND
     1     1     4 1   
     2     1    20 2   
     3     1    21 1   
     4     2    18 1   
     5     2    29 1   
     6     2    30 1   
     7     2    63 1   
     8     3     4 1   
     9     3    31 1   
    10     3    32 1   
    11     3    63 1   
    12     4    19 1   
    13     4    33 1   
    14     5     6 1   
    15     5     9 1   
    16     5    19 1   
    17     5    34 1   
    18     6     7 1   
    19     6    35 1   
    20     6    36 1   
    21     7     8 1   
    22     7    37 1   
    23     7    38 1   
    24     8     9 1   
    25     8    39 1   
    26     8    40 1   
    27     9    41 1   
    28     9    42 1   
    29    10    11 1   
    30    10    43 1   
    31    10    44 1   
    32    10    45 1   
    33    11    12 1   
    34    11    13 1   
    35    11    14 1   
    36    12    46 1   
    37    12    47 1   
    38    12    48 1   
    39    13    49 1   
    40    13    50 1   
    41    13    51 1   
    42    14    15 1   
    43    15    16 2   
    44    15    17 1   
    45    17    18 1   
    46    17    52 1   
    47    18    53 1   
    48    18    54 1   
    49    19    55 1   
    50    21    22 1   
    51    21    56 1   
    52    22    23 1   
    53    22    57 1   
    54    22    58 1   
    55    23    24 ar  
    56    23    28 ar  
    57    24    25 ar  
    58    24    59 1   
    59    25    26 ar  
    60    25    60 1   
    61    26    27 ar  
    62    26    61 1   
    63    27    28 ar  
    64    28    62 1   
@<TRIPOS>SUBSTRUCTURE
     1 D7M         1 TEMP              0 ****  ****    0 ROOT
