@<TRIPOS>MOLECULE
molecule
   63    64     1     0     0
SMALL
bcc


@<TRIPOS>ATOM
      1 C20          0.0000     0.0000     0.0000 c          1 D7M       0.625100
      2 C10          4.2330    -0.1380     3.2130 c3         1 D7M      -0.023300
      3 C12          2.0170     0.0000     1.4430 c3         1 D7M       0.025700
      4 C13          1.5070     0.0000     0.0000 c3         1 D7M       0.107500
      5 C15          2.0440     0.9880    -2.1440 c3         1 D7M       0.158500
      6 C16          1.9480     2.3370    -2.8780 c3         1 D7M      -0.081400
      7 C17          3.2470     2.4870    -3.6960 c3         1 D7M      -0.082900
      8 C18          3.7390     1.0320    -3.8980 c3         1 D7M      -0.082900
      9 C19          3.3990     0.3660    -2.5430 c3         1 D7M      -0.081400
     10 C01          9.8420     0.7270     6.2630 c3         1 D7M      -0.105433
     11 C02          9.0690    -0.4430     6.8750 c3         1 D7M       0.178800
     12 C03          9.6290    -1.7610     6.3360 c3         1 D7M      -0.105433
     13 C04          9.2160    -0.4100     8.3970 c3         1 D7M      -0.105433
     14 O05          7.6660    -0.3340     6.5220 os         1 D7M      -0.439900
     15 C06          7.3620    -0.3460     5.2100 c          1 D7M       0.754100
     16 O07          8.2470    -0.4470     4.3830 o          1 D7M      -0.613000
     17 N08          6.0770    -0.2480     4.8140 ns         1 D7M      -0.578900
     18 C09          5.7470    -0.2620     3.3870 c3         1 D7M       0.148000
     19 N14          1.9970     1.2000    -0.6910 n7         1 D7M      -0.788200
     20 O21         -0.6070     1.0480    -0.0680 o          1 D7M      -0.608100
     21 N22         -0.6740    -1.1650     0.0700 ns         1 D7M      -0.581900
     22 C23         -2.1380    -1.1650     0.0690 c3         1 D7M       0.161300
     23 C24         -2.6410    -2.5830     0.1550 ca         1 D7M      -0.247600
     24 C25         -2.8750    -3.1720     1.3870 ca         1 D7M      -0.078000
     25 C26         -3.3380    -4.4790     1.4170 ca         1 D7M      -0.256300
     26 C27         -3.5480    -5.1470     0.2260 ca         1 D7M       0.428200
     27 N28         -3.3140    -4.5550    -0.9290 nb         1 D7M      -0.688000
     28 C29         -2.8800    -3.3110    -0.9960 ca         1 D7M       0.435200
     29 H1           3.8940     0.7920     3.6530 h1         1 D7M       0.060200
     30 H2           3.7430    -0.9700     3.7050 h1         1 D7M       0.060200
     31 H3           1.5820    -0.8340     1.9790 h1         1 D7M       0.063700
     32 H4           1.7340     0.9270     1.9260 h1         1 D7M       0.063700
     33 H5           1.8680    -0.8840    -0.5110 h1         1 D7M       0.079700
     34 H6           1.2350     0.3390    -2.4560 h1         1 D7M       0.027700
     35 H7           1.0920     2.3370    -3.5420 hc         1 D7M       0.051950
     36 H8           1.8680     3.1440    -2.1600 hc         1 D7M       0.051950
     37 H9           3.0390     2.9520    -4.6530 hc         1 D7M       0.045200
     38 H10          3.9790     3.0600    -3.1400 hc         1 D7M       0.045200
     39 H11          3.1980     0.5540    -4.7060 hc         1 D7M       0.045200
     40 H12          4.8080     1.0120    -4.0770 hc         1 D7M       0.045200
     41 H13          4.1550     0.6040    -1.8050 hc         1 D7M       0.051950
     42 H14          3.3010    -0.7060    -2.6630 hc         1 D7M       0.051950
     43 H15         10.1010     0.4920     5.2380 hc         1 D7M       0.049589
     44 H16         10.7470     0.9000     6.8340 hc         1 D7M       0.049589
     45 H17          9.2260     1.6180     6.2840 hc         1 D7M       0.049589
     46 H18         10.4930    -2.0530     6.9210 hc         1 D7M       0.049589
     47 H19          9.9200    -1.6340     5.3000 hc         1 D7M       0.049589
     48 H20          8.8700    -2.5310     6.4050 hc         1 D7M       0.049589
     49 H21          8.6690    -1.2390     8.8310 hc         1 D7M       0.049589
     50 H22          8.8200     0.5230     8.7790 hc         1 D7M       0.049589
     51 H23         10.2640    -0.4920     8.6610 hc         1 D7M       0.049589
     52 H24          5.3490    -0.1650     5.4960 hn         1 D7M       0.320500
     53 H25          6.2360     0.5690     2.8950 h1         1 D7M       0.067200
     54 H26          6.0860    -1.1920     2.9480 h1         1 D7M       0.067200
     55 H27          1.3940     1.9730    -0.4870 hn         1 D7M       0.383800
     56 H29         -0.1740    -2.0310     0.1090 hn         1 D7M       0.320500
     57 H30         -2.5000    -0.6020     0.9210 h1         1 D7M       0.062200
     58 H31         -2.4990    -0.7090    -0.8450 h1         1 D7M       0.062200
     59 H32         -2.7020    -2.6240     2.3060 ha         1 D7M       0.142000
     60 H33         -3.5320    -4.9710     2.3630 ha         1 D7M       0.142000
     61 H34         -3.9070    -6.1690     0.2410 h4         1 D7M       0.027100
     62 H35         -2.6990    -2.8590    -1.9640 h4         1 D7M       0.029100
     63 S11          3.8240    -0.1560     1.4450 ss         1 D7M      -0.291200
@<TRIPOS>BOND
     1    13    11 1
     2    14    11 1
     3    14    15 1
     4    11    10 1
     5    11    12 1
     6    17    15 1
     7    17    18 1
     8    15    16 2
     9    18     2 1
    10     2    63 1
    11    25    26 ar
    12    25    24 ar
    13    26    27 ar
    14    63     3 1
    15    27    28 ar
    16    24    23 ar
    17     3     4 1
    18    28    23 ar
    19    23    22 1
    20     4     1 1
    21     4    19 1
    22    20     1 2
    23     1    21 1
    24    21    22 1
    25    19     5 1
    26     5     6 1
    27     5     9 1
    28     6     7 1
    29     7     8 1
    30     9     8 1
    31     2    29 1
    32     2    30 1
    33     3    31 1
    34     3    32 1
    35     4    33 1
    36     5    34 1
    37     6    35 1
    38     6    36 1
    39     7    37 1
    40     7    38 1
    41     8    39 1
    42     8    40 1
    43     9    41 1
    44     9    42 1
    45    10    43 1
    46    10    44 1
    47    10    45 1
    48    12    46 1
    49    12    47 1
    50    12    48 1
    51    13    49 1
    52    13    50 1
    53    13    51 1
    54    17    52 1
    55    18    53 1
    56    18    54 1
    57    19    55 1
    58    21    56 1
    59    22    57 1
    60    22    58 1
    61    24    59 1
    62    25    60 1
    63    26    61 1
    64    28    62 1
@<TRIPOS>SUBSTRUCTURE
     1 D7M         1 TEMP              0 ****  ****    0 ROOT
