@<TRIPOS>MOLECULE
D7N
   53    56     1     0     0
SMALL
bcc


@<TRIPOS>ATOM
      1 C25          0.0000     0.0000     0.0000 c3         1 D7N      -0.032400
      2 C24          1.5300     0.0000     0.0000 c3         1 D7N      -0.068400
      3 C23          2.0400     0.0000     1.4420 c3         1 D7N       0.376600
      4 F26          3.4390     0.0000     1.4420 f          1 D7N      -0.219800
      5 F27          1.5730    -1.1430     2.1010 f          1 D7N      -0.219800
      6 C22          1.5300     1.2490     2.1640 c3         1 D7N      -0.068400
      7 C21         -0.0010     1.2480     2.1640 c3         1 D7N      -0.032400
      8 C20         -0.5100     1.2490     0.7210 c3         1 D7N       0.127500
      9 N16         -1.9800     1.2490     0.7210 n3         1 D7N      -0.529600
     10 C15         -2.5060     2.4350     1.4070 c3         1 D7N       0.150800
     11 C14         -4.0290     2.3290     1.5150 c3         1 D7N      -0.052400
     12 C17         -2.5060     1.1480    -0.6460 c3         1 D7N       0.150800
     13 C18         -4.0280     1.0040    -0.5990 c3         1 D7N      -0.052400
     14 C13         -4.6300     2.2200     0.1110 c3         1 D7N       0.056700
     15 N10         -6.0820     2.0600     0.2110 n          1 D7N      -0.127800
     16 C9          -7.0850     2.9700    -0.3560 c3         1 D7N       0.102300
     17 C11         -6.7190     1.0510     0.8320 c          1 D7N       0.630100
     18 O12         -6.1690     0.1280     1.4010 o          1 D7N      -0.628500
     19 C7          -8.1800     1.2260     0.7260 ca         1 D7N      -0.086600
     20 C8          -8.4300     2.3920     0.0040 ca         1 D7N      -0.056300
     21 C3          -9.7240     2.7940    -0.2460 ca         1 D7N      -0.042000
     22 C2         -10.7920     2.0420     0.2230 ca         1 D7N       0.142900
     23 F5         -12.0580     2.4410    -0.0270 f          1 D7N      -0.099900
     24 C1         -10.5640     0.8820     0.9450 ca         1 D7N      -0.172000
     25 C4          -9.2620     0.4600     1.1970 ca         1 D7N      -0.107600
     26 C6          -9.0170    -0.7830     1.9620 c          1 D7N       0.310700
     27 O28         -7.8790    -1.1450     2.1850 o          1 D7N      -0.339100
     28 N19        -10.0570    -1.5130     2.4120 nz         1 D7N       0.197600
     29 H251        -0.3600     0.0030    -1.0220 hc         1 D7N       0.035450
     30 H252        -0.3600    -0.8840     0.5130 hc         1 D7N       0.035450
     31 H241         1.8890    -0.8860    -0.5090 hc         1 D7N       0.041700
     32 H242         1.8900     0.8860    -0.5090 hc         1 D7N       0.041700
     33 H20         -0.1450     2.1320     0.2120 h1         1 D7N       0.013700
     34 H221         1.8890     1.2460     3.1860 hc         1 D7N       0.041700
     35 H222         1.8890     2.1330     1.6520 hc         1 D7N       0.041700
     36 H211        -0.3600     0.3610     2.6720 hc         1 D7N       0.035450
     37 H212        -0.3620     2.1330     2.6730 hc         1 D7N       0.035450
     38 H151        -2.2470     3.3220     0.8420 h1         1 D7N       0.019950
     39 H152        -2.0780     2.4950     2.4000 h1         1 D7N       0.019950
     40 H171        -2.0780     0.2800    -1.1330 h1         1 D7N       0.019950
     41 H172        -2.2460     2.0430    -1.1980 h1         1 D7N       0.019950
     42 H141        -4.2890     1.4470     2.0880 hc         1 D7N       0.037950
     43 H142        -4.4180     3.2130     2.0060 hc         1 D7N       0.037950
     44 H13         -4.3970     3.1160    -0.4510 h1         1 D7N       0.039700
     45 H181        -4.2880     0.1040    -0.0550 hc         1 D7N       0.037950
     46 H182        -4.4160     0.9480    -1.6090 hc         1 D7N       0.037950
     47 H91         -6.9760     3.0160    -1.4320 h1         1 D7N       0.047700
     48 H92         -6.9770     3.9570     0.0780 h1         1 D7N       0.047700
     49 H3          -9.9360     3.6970    -0.8060 ha         1 D7N       0.142000
     50 H1         -11.5230     0.4560     1.2150 ha         1 D7N       0.127000
     51 H191       -10.6130    -0.9560     3.0310 hn         1 D7N       0.244800
     52 H192        -9.7140    -2.3150     2.9020 hn         1 D7N       0.244800
     53 H193       -10.6160    -1.8100     1.6370 hn         1 D7N       0.244800
@<TRIPOS>BOND
     1     1     2 1   
     2     1     8 1   
     3     1    29 1   
     4     1    30 1   
     5     2     3 1   
     6     2    31 1   
     7     2    32 1   
     8     3     4 1   
     9     3     5 1   
    10     3     6 1   
    11     6     7 1   
    12     6    34 1   
    13     6    35 1   
    14     7     8 1   
    15     7    36 1   
    16     7    37 1   
    17     8     9 1   
    18     8    33 1   
    19     9    10 1   
    20     9    12 1   
    21    10    11 1   
    22    10    38 1   
    23    10    39 1   
    24    11    14 1   
    25    11    42 1   
    26    11    43 1   
    27    12    13 1   
    28    12    40 1   
    29    12    41 1   
    30    13    14 1   
    31    13    45 1   
    32    13    46 1   
    33    14    15 1   
    34    14    44 1   
    35    15    16 1   
    36    15    17 1   
    37    16    20 1   
    38    16    47 1   
    39    16    48 1   
    40    17    18 2   
    41    17    19 1   
    42    19    20 ar  
    43    19    25 ar  
    44    20    21 ar  
    45    21    22 ar  
    46    21    49 1   
    47    22    23 1   
    48    22    24 ar  
    49    24    25 ar  
    50    24    50 1   
    51    25    26 1   
    52    26    27 2   
    53    26    28 1   
    54    28    51 1   
    55    28    52 1   
    56    28    53 1   
@<TRIPOS>SUBSTRUCTURE
     1 D7N         1 TEMP              0 ****  ****    0 ROOT
