@<TRIPOS>MOLECULE
molecule
   53    56     1     0     0
SMALL
bcc


@<TRIPOS>ATOM
      1 C25          0.0000     0.0000     0.0000 c3         1 D7N      -0.078900
      2 C24          1.5300     0.0000     0.0000 c3         1 D7N      -0.120400
      3 C23          2.0400     0.0000     1.4420 c3         1 D7N       0.403600
      4 F26          3.4390     0.0000     1.4420 f          1 D7N      -0.235300
      5 F27          1.5730    -1.1430     2.1010 f          1 D7N      -0.235300
      6 C22          1.5300     1.2490     2.1640 c3         1 D7N      -0.120400
      7 C21         -0.0010     1.2480     2.1640 c3         1 D7N      -0.078900
      8 C20         -0.5100     1.2490     0.7210 c3         1 D7N       0.168500
      9 N16         -1.9800     1.2490     0.7210 n3         1 D7N      -0.724600
     10 C15         -2.5060     2.4350     1.4070 c3         1 D7N       0.164300
     11 C14         -4.0290     2.3290     1.5150 c3         1 D7N      -0.098400
     12 C17         -2.5060     1.1480    -0.6460 c3         1 D7N       0.164300
     13 C18         -4.0280     1.0040    -0.5990 c3         1 D7N      -0.098400
     14 C13         -4.6300     2.2200     0.1110 c3         1 D7N       0.140700
     15 N10         -6.0820     2.0600     0.2110 n          1 D7N      -0.470800
     16 C9          -7.0850     2.9700    -0.3560 c3         1 D7N       0.135300
     17 C11         -6.7190     1.0510     0.8320 c          1 D7N       0.698100
     18 O12         -6.1690     0.1280     1.4010 o          1 D7N      -0.585500
     19 C7          -8.1800     1.2260     0.7260 ca         1 D7N      -0.087600
     20 C8          -8.4300     2.3920     0.0040 ca         1 D7N      -0.053300
     21 C3          -9.7240     2.7940    -0.2460 ca         1 D7N      -0.092000
     22 C2         -10.7920     2.0420     0.2230 ca         1 D7N       0.164900
     23 F5         -12.0580     2.4410    -0.0270 f          1 D7N      -0.103900
     24 C1         -10.5640     0.8820     0.9450 ca         1 D7N      -0.196000
     25 C4          -9.2620     0.4600     1.1970 ca         1 D7N      -0.105600
     26 C6          -9.0170    -0.7830     1.9620 c          1 D7N       0.476700
     27 O28         -7.8790    -1.1450     2.1850 o          1 D7N      -0.337100
     28 N19        -10.0570    -1.5130     2.4120 nz         1 D7N      -0.678400
     29 H251        -0.3600     0.0030    -1.0220 hc         1 D7N       0.061450
     30 H252        -0.3600    -0.8840     0.5130 hc         1 D7N       0.061450
     31 H241         1.8890    -0.8860    -0.5090 hc         1 D7N       0.069700
     32 H242         1.8900     0.8860    -0.5090 hc         1 D7N       0.069700
     33 H20         -0.1450     2.1320     0.2120 h1         1 D7N       0.027700
     34 H221         1.8890     1.2460     3.1860 hc         1 D7N       0.069700
     35 H222         1.8890     2.1330     1.6520 hc         1 D7N       0.069700
     36 H211        -0.3600     0.3610     2.6720 hc         1 D7N       0.061450
     37 H212        -0.3620     2.1330     2.6730 hc         1 D7N       0.061450
     38 H151        -2.2470     3.3220     0.8420 h1         1 D7N       0.043450
     39 H152        -2.0780     2.4950     2.4000 h1         1 D7N       0.043450
     40 H171        -2.0780     0.2800    -1.1330 h1         1 D7N       0.043450
     41 H172        -2.2460     2.0430    -1.1980 h1         1 D7N       0.043450
     42 H141        -4.2890     1.4470     2.0880 hc         1 D7N       0.065450
     43 H142        -4.4180     3.2130     2.0060 hc         1 D7N       0.065450
     44 H13         -4.3970     3.1160    -0.4510 h1         1 D7N       0.067700
     45 H181        -4.2880     0.1040    -0.0550 hc         1 D7N       0.065450
     46 H182        -4.4160     0.9480    -1.6090 hc         1 D7N       0.065450
     47 H91         -6.9760     3.0160    -1.4320 h1         1 D7N       0.085700
     48 H92         -6.9770     3.9570     0.0780 h1         1 D7N       0.085700
     49 H3          -9.9360     3.6970    -0.8060 ha         1 D7N       0.179000
     50 H1         -11.5230     0.4560     1.2150 ha         1 D7N       0.151000
     51 H191       -10.6130    -0.9560     3.0310 hn         1 D7N       0.476133
     52 H192        -9.7140    -2.3150     2.9020 hn         1 D7N       0.476133
     53 H193       -10.6160    -1.8100     1.6370 hn         1 D7N       0.476133
@<TRIPOS>BOND
     1     1     2 1
     2     1     8 1
     3     2     3 1
     4     3     4 1
     5     3     5 1
     6     3     6 1
     7     6     7 1
     8     7     8 1
     9     8     9 1
    10     9    10 1
    11     9    12 1
    12    10    11 1
    13    11    14 1
    14    12    13 1
    15    13    14 1
    16    14    15 1
    17    15    16 1
    18    15    17 1
    19    16    20 1
    20    17    18 2
    21    17    19 1
    22    19    20 ar
    23    19    25 ar
    24    20    21 ar
    25    21    22 ar
    26    22    23 1
    27    22    24 ar
    28    24    25 ar
    29    25    26 1
    30    26    27 2
    31    26    28 1
    32     1    29 1
    33     1    30 1
    34     2    31 1
    35     2    32 1
    36     8    33 1
    37     6    34 1
    38     6    35 1
    39     7    36 1
    40     7    37 1
    41    10    38 1
    42    10    39 1
    43    12    40 1
    44    12    41 1
    45    11    42 1
    46    11    43 1
    47    14    44 1
    48    13    45 1
    49    13    46 1
    50    16    47 1
    51    16    48 1
    52    21    49 1
    53    24    50 1
    54    28    51 1
    55    28    52 1
    56    53    28 1
@<TRIPOS>SUBSTRUCTURE
     1 D7N         1 TEMP              0 ****  ****    0 ROOT
