@<TRIPOS>MOLECULE
D7P
   57    56     1     0     0
SMALL
bcc


@<TRIPOS>ATOM
      1 N1'       -53.5250 -161.3630  187.6810 n4        1 D7P     -0.118000
      2 N'        -56.7700 -159.3940  181.8090 n4        1 D7P     -0.077000
      3 CA'       -56.6660 -158.8040  183.1860 c3        1 D7P     -0.066000
      4 O'        -55.1690 -160.6380  183.8050 o         1 D7P     -0.109000
      5 CB'       -55.8010 -157.5160  183.2000 c3        1 D7P     -0.121000
      6 CG'       -56.2510 -156.4330  182.2960 c2        1 D7P     -0.218000
      7 CD1       -57.5120 -155.7610  182.3610 c2        1 D7P     -0.054000
      8 CE1       -57.7590 -154.5980  181.6100 c2        1 D7P     -0.104000
      9 CZ'       -56.7980 -154.0160  180.7780 c2        1 D7P      0.038000
     10 CE2       -55.4960 -154.6330  180.6450 c2        1 D7P     -0.075000
     11 CD2       -55.4770 -155.7150  181.4230 c1        1 D7P      0.320000
     12 N         -56.4510 -159.8560  185.5980 n4        1 D7P     -0.117000
     13 CA        -55.7980 -160.9310  186.4750 c3        1 D7P     -0.069000
     14 C         -54.4270 -160.4230  186.9700 c2        1 D7P      0.224000
     15 O         -54.0450 -159.2710  186.8170 o         1 D7P     -0.129000
     16 CB        -56.6920 -161.2870  187.6870 c3        1 D7P     -0.209000
     17 CG        -56.7110 -162.7810  187.9900 c3        1 D7P     -0.176000
     18 CD        -57.6620 -163.0330  189.1810 c3        1 D7P     -0.055000
     19 NE        -57.6780 -164.4300  189.6000 n3        1 D7P     -0.271000
     20 CZ        -58.4960 -164.7020  190.7610 c2        1 D7P      0.106000
     21 NH1       -58.1710 -166.0720  191.3710 n4        1 D7P     -0.099000
     22 NH2       -59.3530 -163.8880  191.2460 n2        1 D7P     -0.174000
     23 NO        636.0110    0.5470-1959.4140 n3        1 D7P      0.460000
     24 O2        636.4190    0.7650-1960.2990 oh        1 D7P     -0.027000
     25 O3        635.6620    0.0030-1958.3770 oh        1 D7P     -0.171000
     26 H1'1      -53.1430 -162.0750  187.0340 hn        1 D7P      0.312000
     27 H1'2      -54.0150 -161.8410  188.4550 hn        1 D7P      0.312000
     28 HA'       -55.3810 -157.2900  186.3760 ha        1 D7P      0.007000
     29 HB'1      -57.7220 -158.5510  183.5190 hx        1 D7P      0.198000
     30 HB'2      -54.7300 -157.7840  182.9640 hc        1 D7P      0.167500
     31 HD1       -55.8190 -157.1180  184.2600 hc        1 D7P      0.167500
     32 HE1       -58.2840 -156.1410  183.0530 ha        1 D7P      0.198000
     33 HZ'       -58.7560 -154.1000  181.6950 ha        1 D7P      0.258000
     34 HE2       -56.9840 -153.0860  180.1880 ha        1 D7P      0.279000
     35 HD2       -54.7120 -154.2060  179.9750 ha        1 D7P      0.313000
     36 HN        -55.0850 -156.8220  186.7790 ha        1 D7P      0.007000
     37 HA        -56.2450 -158.9190  186.0120 hn        1 D7P      0.300500
     38 HB1       -55.6480 -161.8490  185.8200 hx        1 D7P      0.211000
     39 HB2       -57.7610 -160.9710  187.5090 hc        1 D7P      0.152500
     40 HG1       -56.3490 -160.7140  188.5930 hc        1 D7P      0.152500
     41 HG2       -55.6840 -163.1510  188.2440 hc        1 D7P      0.107500
     42 HD1A      -57.0680 -163.3560  187.0940 hc        1 D7P      0.107500
     43 HD2A      -58.6920 -162.6710  188.8860 h1        1 D7P      0.125000
     44 HNE       -57.3170 -162.4170  190.0610 h1        1 D7P      0.125000
     45 HH1       -58.5190 -166.8230  190.7620 hn        1 D7P      0.280333
     46 HH2       -59.8630 -164.0490  192.0920 hn        1 D7P      0.262000
     47 HO2       636.6940    0.2650-1961.1330 ho        1 D7P      0.346000
     48 HO3       635.7230    0.9920-1958.3010 DU        1 D7P      0.393000
     49 HN'1      -57.4980 -160.1260  181.7620 hn        1 D7P      0.302000
     50 H1'3      -52.7160 -160.8340  188.0820 hn        1 D7P      0.312000
     51 H'2       -57.0260 -158.6430  181.1420 hn        1 D7P      0.302000
     52 H2        -57.4740 -160.0090  185.6410 hn        1 D7P      0.300500
     53 HE3       -57.9200 -165.0480  188.8420 hn        1 D7P      0.215000
     54 HH13      -57.1560 -166.1830  191.4890 hn        1 D7P      0.280333
     55 HO1       -58.6180 -166.1700  192.2940 hn        1 D7P      0.280333
     56 C'        -56.0210 -159.8380  184.1510 c2        1 D7P      0.217000
     57 HN'2      -55.8710 -159.8070  181.5040 hn        1 D7P      0.302000
@<TRIPOS>BOND
     1    1   14 1   
     2    1   26 1   
     3    1   27 1   
     4    1   50 1   
     5    2    3 1   
     6    2   49 1   
     7    2   51 1   
     8    2   57 1   
     9    3    5 1   
    10    3   29 1   
    11    3   56 1   
    12    4   56 1   
    13    5    6 1   
    14    5   30 1   
    15    5   31 1   
    16    6    7 1   
    17    6   11 1   
    18    7    8 1   
    19    7   32 1   
    20    8    9 1   
    21    8   33 1   
    22    9   10 1   
    23    9   34 1   
    24   10   11 1   
    25   10   35 1   
    26   12   13 1   
    27   12   37 1   
    28   12   52 1   
    29   12   56 1   
    30   13   14 1   
    31   13   16 1   
    32   13   38 1   
    33   14   15 1   
    34   16   17 1   
    35   16   39 1   
    36   16   40 1   
    37   17   18 1   
    38   17   41 1   
    39   17   42 1   
    40   18   19 1   
    41   18   43 1   
    42   18   44 1   
    43   19   20 1   
    44   19   53 1   
    45   20   21 1   
    46   20   22 1   
    47   21   45 1   
    48   21   54 1   
    49   21   55 1   
    50   22   46 1   
    51   23   24 1   
    52   23   25 1   
    53   23   48 1   
    54   24   47 1   
    55   25   48 1   
    56   28   36 1   
@<TRIPOS>SUBSTRUCTURE
     1 D7P         1 TEMP              0 ****  ****    0 ROOT
