@<TRIPOS>MOLECULE
D7Q
   47    50     1     0     0
SMALL
bcc


@<TRIPOS>ATOM
      1 C10          0.0000     0.0000     0.0000 c3         1 D7Q       0.051800
      2 C17         -2.4910     1.3120    -0.7060 ca         1 D7Q      -0.056300
      3 C20         -3.1720     2.5910    -2.6130 ca         1 D7Q      -0.126000
      4 C22         -3.4790     1.4280    -3.2960 ca         1 D7Q      -0.143000
      5 C24         -3.3000     0.2010    -2.6910 ca         1 D7Q      -0.061000
      6 C26         -2.7980     0.1350    -1.3900 ca         1 D7Q      -0.120600
      7 C01          3.8210    -1.5300     0.8110 c3         1 D7Q      -0.151100
      8 C05          3.0080    -0.7570     1.8170 c          1 D7Q       0.590100
      9 O06          3.2880    -0.8160     2.9960 o          1 D7Q      -0.669100
     10 N07          1.9710     0.0000     1.4070 n          1 D7Q       0.036000
     11 C08          1.5350     0.0000     0.0000 c3         1 D7Q       0.055700
     12 N13         -0.4800     1.2200     0.6550 nh         1 D7Q      -0.331000
     13 C14         -1.9480     1.2510     0.6990 c3         1 D7Q       0.108100
     14 C18         -2.6790     2.5330    -1.3200 ca         1 D7Q      -0.121000
     15 C27         -2.5920    -1.1750    -0.7400 c          1 D7Q       0.978200
     16 O28         -2.7820    -2.3120    -1.4390 o          1 D7Q      -0.875300
     17 O30         -2.2510    -1.2290     0.4250 o          1 D7Q      -0.875300
     18 C31          0.0630     1.4050     1.9280 ca         1 D7Q       0.032600
     19 C32         -0.6210     2.2050     2.8390 ca         1 D7Q      -0.158000
     20 C34         -0.1070     2.4140     4.1040 ca         1 D7Q      -0.101000
     21 C36          1.0910     1.8310     4.4740 ca         1 D7Q      -0.139000
     22 C38          1.7780     1.0330     3.5790 ca         1 D7Q      -0.131000
     23 C40          1.2650     0.8180     2.3080 ca         1 D7Q      -0.113400
     24 C41          2.0560    -1.2520    -0.7070 cx         1 D7Q      -0.196700
     25 C43          1.0930    -1.9910    -1.6370 cx         1 D7Q      -0.074900
     26 C46          1.4660    -2.5990    -0.2850 cx         1 D7Q      -0.074900
     27 H1          -0.3610    -0.0270    -1.0210 h1         1 D7Q       0.087200
     28 H2          -0.3610    -0.8660     0.5410 h1         1 D7Q       0.087200
     29 H3          -3.3170     3.5520    -3.0920 ha         1 D7Q       0.083000
     30 H4          -3.8660     1.4810    -4.3060 ha         1 D7Q       0.085000
     31 H5          -3.5400    -0.7090    -3.2270 ha         1 D7Q       0.128000
     32 H6           4.7400    -1.8700     1.2730 hc         1 D7Q       0.043033
     33 H7           3.2520    -2.3860     0.4680 hc         1 D7Q       0.043033
     34 H8           4.0550    -0.8910    -0.0320 hc         1 D7Q       0.043033
     35 H9           1.9020     0.8900    -0.4970 h1         1 D7Q       0.032700
     36 H10         -2.2740     2.1250     1.2500 h1         1 D7Q       0.070200
     37 H11         -2.3150     0.3570     1.1890 h1         1 D7Q       0.070200
     38 H12         -2.4410     3.4470    -0.7910 ha         1 D7Q       0.094000
     39 H14         -1.5600     2.6650     2.5550 ha         1 D7Q       0.122000
     40 H15         -0.6430     3.0390     4.8080 ha         1 D7Q       0.087000
     41 H16          1.4900     1.9980     5.4670 ha         1 D7Q       0.091000
     42 H17          2.7160     0.5760     3.8690 ha         1 D7Q       0.174000
     43 H18          3.0960    -1.2880    -1.0100 hc         1 D7Q       0.080700
     44 H19          0.0950    -1.5740    -1.7040 hc         1 D7Q       0.062200
     45 H20          1.5470    -2.4600    -2.5020 hc         1 D7Q       0.062200
     46 H21          0.6960    -2.5550     0.4760 hc         1 D7Q       0.062200
     47 H22          2.1470    -3.4410    -0.3230 hc         1 D7Q       0.062200
@<TRIPOS>BOND
     1     1    11 1   
     2     1    12 1   
     3     1    27 1   
     4     1    28 1   
     5     2     6 ar  
     6     2    13 1   
     7     2    14 ar  
     8     3     4 ar  
     9     3    14 ar  
    10     3    29 1   
    11     4     5 ar  
    12     4    30 1   
    13     5     6 ar  
    14     5    31 1   
    15     6    15 1   
    16     7     8 1   
    17     7    32 1   
    18     7    33 1   
    19     7    34 1   
    20     8     9 2   
    21     8    10 1   
    22    10    11 1   
    23    10    23 1   
    24    11    24 1   
    25    11    35 1   
    26    12    13 1   
    27    12    18 1   
    28    13    36 1   
    29    13    37 1   
    30    14    38 1   
    31    15    16 1   
    32    15    17 1   
    33    18    19 ar  
    34    18    23 ar  
    35    19    20 ar  
    36    19    39 1   
    37    20    21 ar  
    38    20    40 1   
    39    21    22 ar  
    40    21    41 1   
    41    22    23 ar  
    42    22    42 1   
    43    24    25 1   
    44    24    26 1   
    45    24    43 1   
    46    25    26 1   
    47    25    44 1   
    48    25    45 1   
    49    26    46 1   
    50    26    47 1   
@<TRIPOS>SUBSTRUCTURE
     1 D7Q         1 TEMP              0 ****  ****    0 ROOT
