@<TRIPOS>MOLECULE
D7S
   71    74     1     0     0
SMALL
bcc


@<TRIPOS>ATOM
      1 O3          0.4080   -0.0920    0.8540 o         1 D7S     -0.847800
      2 C27         1.6500   -0.2010    0.6450 c         1 D7S      0.913600
      3 O2          2.4720   -0.6200    1.5100 o         1 D7S     -0.847800
      4 C25         2.1730    0.1660   -0.7700 c3        1 D7S     -0.187700
      5 C26         1.5290    1.4460   -1.2440 c3        1 D7S     -0.065100
      6 C24         3.6860    0.2510   -0.7950 c3        1 D7S     -0.066400
      7 C23         4.2510    0.0940   -2.1920 c3        1 D7S     -0.078400
      8 C22         5.7630    0.1840   -2.1830 c3        1 D7S     -0.079400
      9 C20         6.3630    0.0070   -3.5770 c3        1 D7S     -0.058700
     10 C21         6.2470    1.3110   -4.3430 c3        1 D7S     -0.089100
     11 C17         7.8110   -0.4600   -3.4760 c3        1 D7S     -0.050700
     12 C16         7.9330   -1.8040   -2.7260 c3        1 D7S     -0.080400
     13 C15         9.0450   -2.6150   -3.3950 c3        1 D7S     -0.072400
     14 C14         9.7190   -1.6280   -4.3370 c3        1 D7S     -0.037500
     15 C8         10.5460   -2.1100   -5.4720 c2        1 D7S     -0.081400
     16 C7         10.8860   -3.3950   -5.6410 c2        1 D7S     -0.188200
     17 C6         11.8200   -3.8580   -6.6920 c3        1 D7S     -0.037200
     18 C13         8.5590   -0.7100   -4.8070 c3        1 D7S     -0.041000
     19 C18         7.6600   -1.4260   -5.8010 c3        1 D7S     -0.081100
     20 C12         9.2120    0.5070   -5.4400 c3        1 D7S     -0.067400
     21 C11        10.0710    0.0960   -6.6230 c3        1 D7S     -0.071400
     22 C9         11.0960   -0.9940   -6.3180 c3        1 D7S     -0.015500
     23 C10        11.7720   -1.5150   -7.6100 c3        1 D7S     -0.040000
     24 C1         12.6620   -0.4040   -8.1760 c3        1 D7S     -0.068400
     25 C19        10.7330   -1.9250   -8.6440 c3        1 D7S     -0.086100
     26 C5         12.6640   -2.7080   -7.2250 c3        1 D7S     -0.051700
     27 C4         13.5440   -3.2000   -8.3620 c3        1 D7S     -0.179400
     28 C3         14.2990   -2.0860   -9.0250 c         1 D7S      0.573100
     29 O1         15.4960   -2.1840   -9.3150 o         1 D7S     -0.542100
     30 C2         13.4950   -0.8620   -9.3540 c3        1 D7S     -0.181400
     31 H2          1.8440   -0.6740   -1.4420 hc        1 D7S      0.027700
     32 H3          0.4220    1.3760   -1.1050 hc        1 D7S      0.015033
     33 H4          1.7520    1.6350   -2.3230 hc        1 D7S      0.015033
     34 H5          1.9020    2.3160   -0.6520 hc        1 D7S      0.015033
     35 H6          4.0980   -0.5530   -0.1250 hc        1 D7S      0.048200
     36 H7          4.0140    1.2330   -0.3650 hc        1 D7S      0.048200
     37 H8          3.8240    0.8850   -2.8630 hc        1 D7S      0.026200
     38 H9          3.9380   -0.8980   -2.6130 hc        1 D7S      0.026200
     39 H10         6.1600   -0.6030   -1.4880 hc        1 D7S      0.039700
     40 H11         6.0800    1.1760   -1.7670 hc        1 D7S      0.039700
     41 H12         5.7690   -0.7810   -4.1200 hc        1 D7S      0.049700
     42 H13         7.0150    2.0430   -3.9960 hc        1 D7S      0.029700
     43 H14         6.3830    1.1440   -5.4390 hc        1 D7S      0.029700
     44 H15         5.2360    1.7610   -4.1860 hc        1 D7S      0.029700
     45 H16         8.3830    0.3240   -2.9060 hc        1 D7S      0.044700
     46 H17         6.9660   -2.3650   -2.7690 hc        1 D7S      0.051700
     47 H18         8.1730   -1.6200   -1.6500 hc        1 D7S      0.051700
     48 H19         8.6160   -3.4790   -3.9600 hc        1 D7S      0.040200
     49 H20         9.7660   -3.0190   -2.6450 hc        1 D7S      0.040200
     50 H21        10.4120   -0.9930   -3.7040 hc        1 D7S      0.052700
     51 H22        10.4830   -4.1800   -4.9820 ha        1 D7S      0.129000
     52 H23        11.2370   -4.3270   -7.5310 hc        1 D7S      0.046200
     53 H24        12.4970   -4.6500   -6.2740 hc        1 D7S      0.046200
     54 H25         7.0800   -2.2310   -5.2870 hc        1 D7S      0.036033
     55 H26         8.2670   -1.8990   -6.6120 hc        1 D7S      0.036033
     56 H27         6.9420   -0.7080   -6.2640 hc        1 D7S      0.036033
     57 H28         9.8390    1.0370   -4.6760 hc        1 D7S      0.044200
     58 H29         8.4320    1.2310   -5.7920 hc        1 D7S      0.044200
     59 H30        10.6200    1.0010   -6.9970 hc        1 D7S      0.039200
     60 H31         9.3870   -0.2420   -7.4460 hc        1 D7S      0.039200
     61 H32        11.9090   -0.5160   -5.6910 hc        1 D7S      0.050700
     62 H33        12.0210    0.4570   -8.5020 hc        1 D7S      0.049200
     63 H34        13.3430   -0.0300   -7.3670 hc        1 D7S      0.049200
     64 H35        11.1860   -2.5840   -9.4230 hc        1 D7S      0.038033
     65 H36         9.8990   -2.4820   -8.1500 hc        1 D7S      0.038033
     66 H37        10.3120   -1.0280   -9.1580 hc        1 D7S      0.038033
     67 H38        13.3430   -2.3580   -6.3940 hc        1 D7S      0.056700
     68 H39        12.9220   -3.7080   -9.1480 hc        1 D7S      0.068200
     69 H40        14.2650   -3.9630   -7.9650 hc        1 D7S      0.068200
     70 H41        14.1770   -0.0330   -9.6800 hc        1 D7S      0.067200
     71 H42        12.8250   -1.1140  -10.2200 hc        1 D7S      0.067200
@<TRIPOS>BOND
     1    1    2 1   
     2    2    3 1   
     3    2    4 1   
     4    4    5 1   
     5    4    6 1   
     6    4   31 1   
     7    5   32 1   
     8    5   33 1   
     9    5   34 1   
    10    6    7 1   
    11    6   35 1   
    12    6   36 1   
    13    7    8 1   
    14    7   37 1   
    15    7   38 1   
    16    8    9 1   
    17    8   39 1   
    18    8   40 1   
    19    9   10 1   
    20    9   11 1   
    21    9   41 1   
    22   10   42 1   
    23   10   43 1   
    24   10   44 1   
    25   11   12 1   
    26   11   18 1   
    27   11   45 1   
    28   12   13 1   
    29   12   46 1   
    30   12   47 1   
    31   13   14 1   
    32   13   48 1   
    33   13   49 1   
    34   14   15 1   
    35   14   18 1   
    36   14   50 1   
    37   15   16 2   
    38   15   22 1   
    39   16   17 1   
    40   16   51 1   
    41   17   26 1   
    42   17   52 1   
    43   17   53 1   
    44   18   19 1   
    45   18   20 1   
    46   19   54 1   
    47   19   55 1   
    48   19   56 1   
    49   20   21 1   
    50   20   57 1   
    51   20   58 1   
    52   21   22 1   
    53   21   59 1   
    54   21   60 1   
    55   22   23 1   
    56   22   61 1   
    57   23   24 1   
    58   23   25 1   
    59   23   26 1   
    60   24   30 1   
    61   24   62 1   
    62   24   63 1   
    63   25   64 1   
    64   25   65 1   
    65   25   66 1   
    66   26   27 1   
    67   26   67 1   
    68   27   28 1   
    69   27   68 1   
    70   27   69 1   
    71   28   29 2   
    72   28   30 1   
    73   30   70 1   
    74   30   71 1   
@<TRIPOS>SUBSTRUCTURE
     1 D7S         1 TEMP              0 ****  ****    0 ROOT
