@<TRIPOS>MOLECULE
molecule
   71    74     1     0     0
SMALL
bcc


@<TRIPOS>ATOM
      1 O3           0.0000     0.0000     0.0000 o          1 D7S      -0.854300
      2 C27          1.3420     0.0000     0.0000 c          1 D7S       0.895600
      3 O2           1.9470     0.0000     1.0460 o          1 D7S      -0.854300
      4 C25          2.0960     0.0020    -1.3040 c3         1 D7S      -0.174700
      5 C26          1.7260     1.2510    -2.1070 c3         1 D7S      -0.071100
      6 C24          3.6010     0.0020    -1.0250 c3         1 D7S      -0.058400
      7 C23          4.3640    -0.1240    -2.3450 c3         1 D7S      -0.090400
      8 C22          5.8690    -0.1230    -2.0650 c3         1 D7S      -0.080400
      9 C20          6.6330    -0.2480    -3.3850 c3         1 D7S      -0.073700
     10 C21          6.3800     0.9950    -4.2400 c3         1 D7S      -0.094100
     11 C17          8.1300    -0.3730    -3.0960 c3         1 D7S      -0.054700
     12 C16          8.4150    -1.6480    -2.2590 c3         1 D7S      -0.079400
     13 C15          9.4330    -2.4910    -3.0790 c3         1 D7S      -0.078400
     14 C14         10.1190    -1.4360    -3.9520 c3         1 D7S      -0.039500
     15 C8          10.7350    -1.9280    -5.2320 c2         1 D7S      -0.086400
     16 C7          10.8760    -3.1980    -5.4490 c2         1 D7S      -0.192200
     17 C6          11.4660    -3.7500    -6.7120 c3         1 D7S      -0.036200
     18 C13          8.9030    -0.5710    -4.3910 c3         1 D7S      -0.059000
     19 C18          8.0450    -1.3740    -5.3710 c3         1 D7S      -0.092100
     20 C12          9.4400     0.6550    -5.0900 c3         1 D7S      -0.065400
     21 C11         10.0700     0.1930    -6.4160 c3         1 D7S      -0.075400
     22 C9          11.1650    -0.8560    -6.1970 c3         1 D7S      -0.016500
     23 C10         11.6650    -1.4030    -7.5240 c3         1 D7S      -0.054000
     24 C1          12.5840    -0.3580    -8.1660 c3         1 D7S      -0.067400
     25 C19         10.4720    -1.6590    -8.4470 c3         1 D7S      -0.091100
     26 C5          12.4180    -2.7170    -7.3310 c3         1 D7S      -0.049700
     27 C4          12.8870    -3.2570    -8.6900 c3         1 D7S      -0.182400
     28 C3          13.6650    -2.1810    -9.4100 c          1 D7S       0.571100
     29 O1          14.7610    -2.3980    -9.8670 o          1 D7S      -0.531100
     30 C2          13.0120    -0.8260    -9.5590 c3         1 D7S      -0.183400
     31 H2           1.8350    -0.8830    -1.8730 hc         1 D7S       0.036700
     32 H3           1.8910     1.0650    -3.1610 hc         1 D7S       0.019367
     33 H4           2.3430     2.0820    -1.7860 hc         1 D7S       0.019367
     34 H5           0.6830     1.4910    -1.9410 hc         1 D7S       0.019367
     35 H6           3.8770     0.9270    -0.5340 hc         1 D7S       0.045700
     36 H7           3.8490    -0.8350    -0.3830 hc         1 D7S       0.045700
     37 H8           4.0890    -1.0490    -2.8350 hc         1 D7S       0.032200
     38 H9           4.1160     0.7130    -2.9870 hc         1 D7S       0.032200
     39 H10          6.1180    -0.9600    -1.4230 hc         1 D7S       0.040200
     40 H11          6.1450     0.8030    -1.5740 hc         1 D7S       0.040200
     41 H12          6.2930    -1.1280    -3.9170 hc         1 D7S       0.055700
     42 H13          6.4170     0.7260    -5.2880 hc         1 D7S       0.033367
     43 H14          7.1400     1.7380    -4.0310 hc         1 D7S       0.033367
     44 H15          5.4040     1.4020    -4.0060 hc         1 D7S       0.033367
     45 H16          8.4930     0.5040    -2.5750 hc         1 D7S       0.052700
     46 H17          7.4990    -2.2090    -2.1170 hc         1 D7S       0.050200
     47 H18          8.8440    -1.3760    -1.3030 hc         1 D7S       0.050200
     48 H19          8.9190    -3.2190    -3.6940 hc         1 D7S       0.044200
     49 H20         10.1500    -2.9680    -2.4230 hc         1 D7S       0.044200
     50 H21         10.8240    -0.8480    -3.3760 hc         1 D7S       0.063700
     51 H22         10.5540    -3.8930    -4.6820 ha         1 D7S       0.130000
     52 H23         12.0160    -4.6550    -6.4860 hc         1 D7S       0.048200
     53 H24         10.6700    -3.9700    -7.4140 hc         1 D7S       0.048200
     54 H25          7.3630    -2.0090    -4.8180 hc         1 D7S       0.039700
     55 H26          7.4780    -0.6940    -5.9960 hc         1 D7S       0.039700
     56 H27          8.6850    -1.9880    -5.9930 hc         1 D7S       0.039700
     57 H28         10.1920     1.1300    -4.4720 hc         1 D7S       0.047200
     58 H29          8.6300     1.3470    -5.2900 hc         1 D7S       0.047200
     59 H30          9.2960    -0.2330    -7.0420 hc         1 D7S       0.043200
     60 H31         10.5020     1.0510    -6.9160 hc         1 D7S       0.043200
     61 H32         12.0010    -0.3430    -5.7380 hc         1 D7S       0.049700
     62 H33         13.4640    -0.2260    -7.5470 hc         1 D7S       0.049700
     63 H34         12.0540     0.5820    -8.2510 hc         1 D7S       0.049700
     64 H35          9.6880    -2.1610    -7.8930 hc         1 D7S       0.039033
     65 H36         10.7840    -2.2820    -9.2760 hc         1 D7S       0.039033
     66 H37         10.0990    -0.7150    -8.8250 hc         1 D7S       0.039033
     67 H38         13.2710    -2.5630    -6.6800 hc         1 D7S       0.062700
     68 H39         13.5230    -4.1200    -8.5360 hc         1 D7S       0.068700
     69 H40         12.0250    -3.5370    -9.2840 hc         1 D7S       0.068700
     70 H41         12.1430    -0.9070   -10.2010 hc         1 D7S       0.066700
     71 H42         13.7210    -0.1230    -9.9800 hc         1 D7S       0.066700
@<TRIPOS>BOND
     1    29    28 2
     2    28    30 1
     3    28    27 1
     4    30    24 1
     5    27    26 1
     6    24    23 1
     7    26    23 1
     8    26    17 1
     9    23    25 1
    10    23    22 1
    11    17    16 1
    12    22    15 1
    13    22    21 1
    14    16    15 2
    15    15    14 1
    16    21    20 1
    17    14    13 1
    18    14    18 1
    19    20    18 1
    20    13    12 1
    21    18    19 1
    22    18    11 1
    23    11    12 1
    24    11     9 1
    25    10     9 1
    26     9     8 1
    27     8     7 1
    28     7     6 1
    29     6     4 1
    30     3     2 1
    31     4     2 1
    32     4     5 1
    33     2     1 1
    34     4    31 1
    35     5    32 1
    36     5    33 1
    37     5    34 1
    38     6    35 1
    39     6    36 1
    40     7    37 1
    41     7    38 1
    42     8    39 1
    43     8    40 1
    44     9    41 1
    45    10    42 1
    46    10    43 1
    47    10    44 1
    48    11    45 1
    49    12    46 1
    50    12    47 1
    51    13    48 1
    52    13    49 1
    53    14    50 1
    54    16    51 1
    55    17    52 1
    56    17    53 1
    57    19    54 1
    58    19    55 1
    59    19    56 1
    60    20    57 1
    61    20    58 1
    62    21    59 1
    63    21    60 1
    64    22    61 1
    65    24    62 1
    66    24    63 1
    67    25    64 1
    68    25    65 1
    69    25    66 1
    70    26    67 1
    71    27    68 1
    72    27    69 1
    73    30    70 1
    74    30    71 1
@<TRIPOS>SUBSTRUCTURE
     1 D7S         1 TEMP              0 ****  ****    0 ROOT
