@<TRIPOS>MOLECULE
molecule
   41    43     1     0     0
SMALL
bcc


@<TRIPOS>ATOM
      1 N1           0.0000     0.0000     0.0000 nh         1 D7T      -0.592000
      2 C4          -0.5260    -0.7220     1.1660 c3         1 D7T       0.211100
      3 C5          -2.0120    -0.4910     1.2690 ca         1 D7T      -0.089300
      4 C6          -2.8940    -1.4190     0.7460 ca         1 D7T      -0.134000
      5 C7          -4.2560    -1.2080     0.8400 ca         1 D7T      -0.127000
      6 C8          -4.7380    -0.0700     1.4580 ca         1 D7T      -0.124000
      7 C13          2.0670     0.0000     1.2190 ca         1 D7T      -0.161000
      8 C15          4.1730     0.0250     0.0760 ca         1 D7T      -0.139000
      9 C17          2.1320     0.0080    -1.1820 ca         1 D7T       0.026600
     10 O            3.3250    -0.5310    -3.5300 o          1 D7T      -0.598100
     11 C            1.4510    -0.0910    -4.8970 c3         1 D7T      -0.170100
     12 N            1.4760    -0.0000    -2.4250 n          1 D7T      -0.380000
     13 C16          3.5180     0.0230    -1.1400 ca         1 D7T      -0.131000
     14 C14          3.4470     0.0130     1.2530 ca         1 D7T      -0.125000
     15 C12          1.3960     0.0000     0.0000 ca         1 D7T       0.076600
     16 C3          -0.5730    -0.5220    -1.2430 c3         1 D7T       0.148800
     17 C2           0.0240     0.2450    -2.4330 c3         1 D7T       0.097000
     18 C11         -2.4950     0.6440     1.8920 ca         1 D7T      -0.104000
     19 C9          -3.8580     0.8570     1.9810 ca         1 D7T      -0.083300
     20 H1          -0.0410    -0.3590     2.0640 h1         1 D7T       0.054200
     21 H2          -0.3320    -1.7810     1.0530 h1         1 D7T       0.054200
     22 H3          -2.5160    -2.3110     0.2610 ha         1 D7T       0.128000
     23 H4          -4.9470    -1.9360     0.4290 ha         1 D7T       0.130000
     24 H5          -5.8060     0.0960     1.5320 ha         1 D7T       0.131000
     25 H6          -5.4650     2.1130     2.5960 hc         1 D7T       0.044033
     26 H7          -3.9840     2.9760     2.1570 hc         1 D7T       0.044033
     27 H8          -4.0770     2.1040     3.6940 hc         1 D7T       0.044033
     28 H9           1.5040    -0.0090     2.1450 ha         1 D7T       0.135000
     29 H10          5.2560     0.0350     0.1090 ha         1 D7T       0.133000
     30 H11          2.1700    -0.2140    -5.6990 hc         1 D7T       0.063033
     31 H12          0.6870    -0.8540    -4.9770 hc         1 D7T       0.063033
     32 H13          0.9940     0.8880    -4.9700 hc         1 D7T       0.063033
     33 H14          4.0880     0.0330    -2.0620 ha         1 D7T       0.193000
     34 H15          3.9630     0.0140     2.2050 ha         1 D7T       0.128000
     35 H16         -1.6480    -0.3880    -1.2300 h1         1 D7T       0.055200
     36 H17         -0.3350    -1.5750    -1.3370 h1         1 D7T       0.055200
     37 H18         -0.4060    -0.1200    -3.3580 h1         1 D7T       0.062200
     38 H19         -0.1710     1.3050    -2.3220 h1         1 D7T       0.062200
     39 H20         -1.8050     1.3720     2.3030 ha         1 D7T       0.138000
     40 C10         -4.3830     2.1000     2.6550 c3         1 D7T      -0.047800
     41 C1           2.1530    -0.2230    -3.5690 c          1 D7T       0.666100
@<TRIPOS>BOND
     1    40    19 1
     2    11    41 1
     3     8    13 ar
     4     8    14 ar
     5    19     6 ar
     6    19    18 ar
     7    13     9 ar
     8    14     7 ar
     9    41    10 2
    10    41    12 1
    11     6     5 ar
    12    18     3 ar
    13     9    12 1
    14     9    15 ar
    15     7    15 ar
    16    12    17 1
    17    15     1 1
    18     5     4 ar
    19     3     4 ar
    20     3     2 1
    21     1    16 1
    22     1     2 1
    23    17    16 1
    24     2    20 1
    25     2    21 1
    26     4    22 1
    27     5    23 1
    28     6    24 1
    29    40    25 1
    30    40    26 1
    31    40    27 1
    32     7    28 1
    33     8    29 1
    34    11    30 1
    35    11    31 1
    36    11    32 1
    37    13    33 1
    38    14    34 1
    39    16    35 1
    40    16    36 1
    41    17    37 1
    42    17    38 1
    43    18    39 1
@<TRIPOS>SUBSTRUCTURE
     1 D7T         1 TEMP              0 ****  ****    0 ROOT
