@<TRIPOS>MOLECULE
D7T
   41    43     1     0     0
SMALL
bcc


@<TRIPOS>ATOM
      1 N1           0.0000     0.0000     0.0000 nh         1 D7T      -0.343000
      2 C4          -0.5260    -0.7220     1.1660 c3         1 D7T       0.186100
      3 C5          -2.0120    -0.4910     1.2690 ca         1 D7T      -0.098300
      4 C6          -2.8940    -1.4190     0.7460 ca         1 D7T      -0.110000
      5 C7          -4.2560    -1.2080     0.8400 ca         1 D7T      -0.097000
      6 C8          -4.7380    -0.0700     1.4580 ca         1 D7T      -0.099000
      7 C13          2.0670     0.0000     1.2190 ca         1 D7T      -0.145000
      8 C15          4.1730     0.0250     0.0760 ca         1 D7T      -0.106000
      9 C17          2.1320     0.0080    -1.1820 ca         1 D7T      -0.102400
     10 O            3.3250    -0.5310    -3.5300 o          1 D7T      -0.634100
     11 C            1.4510    -0.0910    -4.8970 c3         1 D7T      -0.075100
     12 N            1.4760    -0.0000    -2.4250 n          1 D7T       0.012000
     13 C16          3.5180     0.0230    -1.1400 ca         1 D7T      -0.124000
     14 C14          3.4470     0.0130     1.2530 ca         1 D7T      -0.092000
     15 C12          1.3960     0.0000     0.0000 ca         1 D7T      -0.008400
     16 C3          -0.5730    -0.5220    -1.2430 c3         1 D7T       0.116800
     17 C2           0.0240     0.2450    -2.4330 c3         1 D7T       0.027000
     18 C11         -2.4950     0.6440     1.8920 ca         1 D7T      -0.080000
     19 C9          -3.8580     0.8570     1.9810 ca         1 D7T      -0.088300
     20 H1          -0.0410    -0.3590     2.0640 h1         1 D7T       0.029200
     21 H2          -0.3320    -1.7810     1.0530 h1         1 D7T       0.029200
     22 H3          -2.5160    -2.3110     0.2610 ha         1 D7T       0.105000
     23 H4          -4.9470    -1.9360     0.4290 ha         1 D7T       0.103000
     24 H5          -5.8060     0.0960     1.5320 ha         1 D7T       0.107000
     25 H6          -5.4650     2.1130     2.5960 hc         1 D7T       0.008033
     26 H7          -3.9840     2.9760     2.1570 hc         1 D7T       0.008033
     27 H8          -4.0770     2.1040     3.6940 hc         1 D7T       0.008033
     28 H9           1.5040    -0.0090     2.1450 ha         1 D7T       0.119000
     29 H10          5.2560     0.0350     0.1090 ha         1 D7T       0.105000
     30 H11          2.1700    -0.2140    -5.6990 hc         1 D7T       0.026033
     31 H12          0.6870    -0.8540    -4.9770 hc         1 D7T       0.026033
     32 H13          0.9940     0.8880    -4.9700 hc         1 D7T       0.026033
     33 H14          4.0880     0.0330    -2.0620 ha         1 D7T       0.179000
     34 H15          3.9630     0.0140     2.2050 ha         1 D7T       0.100000
     35 H16         -1.6480    -0.3880    -1.2300 h1         1 D7T       0.029700
     36 H17         -0.3350    -1.5750    -1.3370 h1         1 D7T       0.029700
     37 H18         -0.4060    -0.1200    -3.3580 h1         1 D7T       0.034700
     38 H19         -0.1710     1.3050    -2.3220 h1         1 D7T       0.034700
     39 H20         -1.8050     1.3720     2.3030 ha         1 D7T       0.113000
     40 C10         -4.3830     2.1000     2.6550 c3         1 D7T       0.064200
     41 C1           2.1530    -0.2230    -3.5690 c          1 D7T       0.578100
@<TRIPOS>BOND
     1     1     2 1   
     2     1    15 1   
     3     1    16 1   
     4     2     3 1   
     5     2    20 1   
     6     2    21 1   
     7     3     4 ar  
     8     3    18 ar  
     9     4     5 ar  
    10     4    22 1   
    11     5     6 ar  
    12     5    23 1   
    13     6    19 ar  
    14     6    24 1   
    15     7    14 ar  
    16     7    15 ar  
    17     7    28 1   
    18     8    13 ar  
    19     8    14 ar  
    20     8    29 1   
    21     9    12 1   
    22     9    13 ar  
    23     9    15 ar  
    24    10    41 2   
    25    11    30 1   
    26    11    31 1   
    27    11    32 1   
    28    11    41 1   
    29    12    17 1   
    30    12    41 1   
    31    13    33 1   
    32    14    34 1   
    33    16    17 1   
    34    16    35 1   
    35    16    36 1   
    36    17    37 1   
    37    17    38 1   
    38    18    19 ar  
    39    18    39 1   
    40    19    40 1   
    41    25    40 1   
    42    26    40 1   
    43    27    40 1   
@<TRIPOS>SUBSTRUCTURE
     1 D7T         1 TEMP              0 ****  ****    0 ROOT
