@<TRIPOS>MOLECULE
D7V
   42    44     1     0     0
SMALL
bcc


@<TRIPOS>ATOM
      1 C1           0.0000     0.0000     0.0000 c3         1 D7V       0.180600
      2 N1           1.4690     0.0000     0.0000 n3         1 D7V      -0.545600
      3 O1           0.1760    -2.2880    -6.1910 os         1 D7V      -0.324900
      4 C2           1.9950     0.0000     1.3710 c3         1 D7V       0.180600
      5 C3           1.9950    -1.1370    -0.7660 c3         1 D7V       0.157800
      6 C4           1.6310    -0.9710    -2.2430 c3         1 D7V      -0.022200
      7 C5           2.1710    -2.1380    -3.0290 c2         1 D7V      -0.128200
      8 C6           1.3480    -2.8700    -3.7890 ce         1 D7V      -0.015400
      9 C7           1.8900    -4.0160    -4.5570 ca         1 D7V      -0.011800
     10 C8           2.8080    -4.8360    -3.8860 ca         1 D7V      -0.102000
     11 C9           3.3720    -5.9240    -4.5140 ca         1 D7V      -0.100000
     12 C10          3.0250    -6.2070    -5.8220 ca         1 D7V      -0.099000
     13 C11          2.1230    -5.4060    -6.4860 ca         1 D7V      -0.104000
     14 C12          1.5390    -4.3010    -5.8640 ca         1 D7V      -0.120300
     15 C13          0.5640    -3.5320    -6.7160 c3         1 D7V       0.292700
     16 C14         -0.6120    -2.2180    -5.1000 ca         1 D7V       0.135100
     17 C15         -0.0920    -2.5250    -3.8500 ca         1 D7V      -0.071800
     18 C16         -1.9470    -1.8510    -5.2090 ca         1 D7V      -0.121000
     19 C17         -2.7410    -1.8160    -4.0780 ca         1 D7V      -0.087000
     20 C18         -2.2220    -2.1450    -2.8380 ca         1 D7V      -0.117000
     21 C19         -0.8910    -2.5010    -2.7160 ca         1 D7V      -0.080000
     22 H1          -0.3610     0.6250     0.8080 h1         1 D7V       0.001367
     23 H1A         -0.3610     0.3870    -0.9450 h1         1 D7V       0.001367
     24 H1B         -0.3610    -1.0120     0.1370 h1         1 D7V       0.001367
     25 H2           3.0750     0.0780     1.3430 h1         1 D7V       0.001367
     26 H2A          1.5870     0.8430     1.9150 h1         1 D7V       0.001367
     27 H2B          1.7120    -0.9210     1.8660 h1         1 D7V       0.001367
     28 H3           3.0730    -1.1750    -0.6620 h1         1 D7V       0.007700
     29 H3A          1.5640    -2.0570    -0.3890 h1         1 D7V       0.007700
     30 H4           2.0620    -0.0520    -2.6200 hc         1 D7V       0.041700
     31 H4A          0.5530    -0.9340    -2.3470 hc         1 D7V       0.041700
     32 H5           3.2320    -2.3540    -3.0160 ha         1 D7V       0.111000
     33 H8           3.0780    -4.6110    -2.8610 ha         1 D7V       0.109000
     34 H9           4.0810    -6.5510    -3.9880 ha         1 D7V       0.104000
     35 H10          3.4630    -7.0610    -6.3250 ha         1 D7V       0.103000
     36 H11          1.8590    -5.6390    -7.5100 ha         1 D7V       0.103000
     37 H13         -0.3280    -4.1370    -6.8250 h1         1 D7V       0.016200
     38 H13A         1.0350    -3.3520    -7.6750 h1         1 D7V       0.016200
     39 H16         -2.3630    -1.5920    -6.1750 ha         1 D7V       0.114000
     40 H17         -3.7840    -1.5380    -4.1650 ha         1 D7V       0.102000
     41 H18         -2.8560    -2.1130    -1.9600 ha         1 D7V       0.104000
     42 H19         -0.4780    -2.7600    -1.7480 ha         1 D7V       0.114000
@<TRIPOS>BOND
     1     1     2 1   
     2     1    22 1   
     3     1    23 1   
     4     1    24 1   
     5     2     4 1   
     6     2     5 1   
     7     3    15 1   
     8     3    16 1   
     9     4    25 1   
    10     4    26 1   
    11     4    27 1   
    12     5     6 1   
    13     5    28 1   
    14     5    29 1   
    15     6     7 1   
    16     6    30 1   
    17     6    31 1   
    18     7     8 2   
    19     7    32 1   
    20     8     9 1   
    21     8    17 1   
    22     9    10 ar  
    23     9    14 ar  
    24    10    11 ar  
    25    10    33 1   
    26    11    12 ar  
    27    11    34 1   
    28    12    13 ar  
    29    12    35 1   
    30    13    14 ar  
    31    13    36 1   
    32    14    15 1   
    33    15    37 1   
    34    15    38 1   
    35    16    17 ar  
    36    16    18 ar  
    37    17    21 ar  
    38    18    19 ar  
    39    18    39 1   
    40    19    20 ar  
    41    19    40 1   
    42    20    21 ar  
    43    20    41 1   
    44    21    42 1   
@<TRIPOS>SUBSTRUCTURE
     1 D7V         1 TEMP              0 ****  ****    0 ROOT
