@<TRIPOS>MOLECULE
D7W
   29    30     1     0     0
SMALL
bcc


@<TRIPOS>ATOM
      1 C13          0.0000     0.0000     0.0000 ca         1 D7W      -0.101000
      2 C15          0.0030     0.0110     2.3960 ca         1 D7W      -0.112000
      3 C17          2.0790     0.0000     1.2040 ca         1 D7W      -0.136000
      4 C03          1.5990     2.3500    -6.5450 c3         1 D7W       0.028800
      5 C04          0.3970     2.6230    -5.6630 c          1 D7W       0.720500
      6 C07          1.8230     1.4260    -4.4900 c2         1 D7W       0.446800
      7 C09          1.6010     0.6680    -2.2730 c          1 D7W       0.532100
      8 C12          1.3880     0.0000     0.0000 ca         1 D7W      -0.072400
      9 C14         -0.6890     0.0060     1.1980 ca         1 D7W      -0.014600
     10 C16          1.3860     0.0120     2.3980 ca         1 D7W      -0.074000
     11 N02          2.4820     1.5520    -5.6740 nh         1 D7W      -0.495600
     12 N06          0.6550     2.0320    -4.4990 ne         1 D7W      -0.667100
     13 N08          2.3190     0.7460    -3.4110 ns         1 D7W      -0.032400
     14 N11          2.0890    -0.0020    -1.2120 ns         1 D7W      -0.051100
     15 O10          0.5110     1.2040    -2.2050 o          1 D7W      -0.581100
     16 Cl1         -2.4250     0.0070     1.2000 cl         1 D7W      -0.017400
     17 H1          -0.5420    -0.0020    -0.9380 ha         1 D7W       0.162000
     18 H2          -0.5390     0.0180     3.3340 ha         1 D7W       0.115000
     19 H3           3.1630     0.0000     1.2060 ha         1 D7W       0.104000
     20 H4           3.7760    -0.0730    -5.9210 h1         1 D7W       0.009033
     21 H5           4.5420     1.4110    -5.3380 h1         1 D7W       0.009033
     22 H6           4.0490     1.2770    -7.0320 h1         1 D7W       0.009033
     23 H7           1.2660     1.6970    -7.3430 h1         1 D7W       0.057700
     24 H8           2.0930     3.3000    -6.7130 h1         1 D7W       0.057700
     25 H9           1.9260     0.0140     3.3370 ha         1 D7W       0.105000
     26 H10          3.2160     0.3060    -3.4660 hn         1 D7W       0.158500
     27 H11          2.9410    -0.5190    -1.2950 hn         1 D7W       0.157500
     28 O05         -0.6000     3.2530    -5.9580 o          1 D7W      -0.558100
     29 C01          3.7980     1.0060    -6.0130 c3         1 D7W       0.240100
@<TRIPOS>BOND
     1     1     8 ar  
     2     1     9 ar  
     3     1    17 1   
     4     2     9 ar  
     5     2    10 ar  
     6     2    18 1   
     7     3     8 ar  
     8     3    10 ar  
     9     3    19 1   
    10     4     5 1   
    11     4    11 1   
    12     4    23 1   
    13     4    24 1   
    14     5    12 1   
    15     5    28 2   
    16     6    11 1   
    17     6    12 2   
    18     6    13 1   
    19     7    13 1   
    20     7    14 1   
    21     7    15 2   
    22     8    14 1   
    23     9    16 1   
    24    10    25 1   
    25    11    29 1   
    26    13    26 1   
    27    14    27 1   
    28    20    29 1   
    29    21    29 1   
    30    22    29 1   
@<TRIPOS>SUBSTRUCTURE
     1 D7W         1 TEMP              0 ****  ****    0 ROOT
