@<TRIPOS>MOLECULE
molecule
   59    59     1     0     0
SMALL
bcc


@<TRIPOS>ATOM
      1 C15          0.0000     0.0000     0.0000 c3         1 D7Y      -0.105433
      2 C17          2.0400     1.2480    -0.7220 c3         1 D7Y      -0.105433
      3 C21          5.0160    -8.2900    -9.5700 c3         1 D7Y       0.165300
      4 C22          6.3900    -7.8940   -10.0460 ca         1 D7Y      -0.245600
      5 C24          8.6970    -7.4620    -9.6390 ca         1 D7Y      -0.257300
      6 C02          0.3740    -5.9500    -9.7920 c3         1 D7Y       0.159500
      7 C03         -0.8720    -6.7850   -10.0960 c3         1 D7Y      -0.104600
      8 C06          2.5790    -5.6520    -6.8120 c3         1 D7Y       0.013700
      9 C08          2.2730    -3.8810    -4.6140 c3         1 D7Y      -0.006300
     10 C09          1.6730    -2.5850    -4.0670 c3         1 D7Y       0.147000
     11 O12          0.9510    -0.5050    -2.5090 o          1 D7Y      -0.611000
     12 C14          1.5300     0.0000     0.0000 c3         1 D7Y       0.178800
     13 C16          2.0400     0.0000     1.4420 c3         1 D7Y      -0.105433
     14 C18          3.0180    -7.2050    -8.6950 c          1 D7Y       0.654100
     15 O19          2.4950    -8.2960    -8.6170 o          1 D7Y      -0.568100
     16 C23          7.4510    -7.8320    -9.1560 ca         1 D7Y      -0.078000
     17 C25          8.8400    -7.1730   -10.9830 ca         1 D7Y       0.427200
     18 C27          6.6100    -7.5950   -11.3780 ca         1 D7Y       0.435200
     19 C01          0.0400    -4.4630    -9.9430 c3         1 D7Y      -0.104600
     20 N04          0.8170    -6.2140    -8.4170 n7         1 D7Y      -0.792200
     21 C05          2.2590    -5.9730    -8.2730 c3         1 D7Y       0.114500
     22 S07          1.7860    -4.0880    -6.3480 ss         1 D7Y      -0.342200
     23 N10          2.0660    -2.4180    -2.6650 ns         1 D7Y      -0.579900
     24 C11          1.6510    -1.3390    -1.9720 c          1 D7Y       0.755100
     25 O13          2.0140    -1.1870    -0.6840 os         1 D7Y      -0.438900
     26 N20          4.2780    -7.0930    -9.1600 ns         1 D7Y      -0.594900
     27 N26          7.8100    -7.2490   -11.8020 nb         1 D7Y      -0.689000
     28 H1          -0.3610     0.4150    -0.9330 hc         1 D7Y       0.050033
     29 H2          -0.3610    -1.0160     0.1070 hc         1 D7Y       0.050033
     30 H3          -0.3610     0.6010     0.8260 hc         1 D7Y       0.050033
     31 H4           1.3810     1.4810    -1.5500 hc         1 D7Y       0.050033
     32 H5           3.0400     1.0660    -1.0960 hc         1 D7Y       0.050033
     33 H6           2.0590     2.0820    -0.0310 hc         1 D7Y       0.050033
     34 H7           4.4840    -8.7850   -10.3730 h1         1 D7Y       0.061200
     35 H8           5.1070    -8.9650    -8.7270 h1         1 D7Y       0.061200
     36 H9           9.5480    -7.4010    -8.9720 ha         1 D7Y       0.141000
     37 H10          1.1680    -6.2230   -10.4760 h1         1 D7Y       0.055700
     38 H11         -1.2130    -6.5710   -11.1020 hc         1 D7Y       0.040533
     39 H12         -1.6540    -6.5380    -9.3890 hc         1 D7Y       0.040533
     40 H13         -0.6300    -7.8380   -10.0140 hc         1 D7Y       0.040533
     41 H14          3.6520    -5.5630    -6.6880 h1         1 D7Y       0.074200
     42 H15          2.2070    -6.4470    -6.1770 h1         1 D7Y       0.074200
     43 H16          1.9090    -4.7210    -4.0340 h1         1 D7Y       0.064700
     44 H17          3.3530    -3.8370    -4.5450 h1         1 D7Y       0.064700
     45 H18          2.0370    -1.7460    -4.6470 h1         1 D7Y       0.067700
     46 H19          0.5930    -2.6300    -4.1360 h1         1 D7Y       0.067700
     47 H20          1.6780    -0.8840     1.9530 hc         1 D7Y       0.050033
     48 H21          3.1230    -0.0000     1.4420 hc         1 D7Y       0.050033
     49 H22          1.6790     0.8850     1.9530 hc         1 D7Y       0.050033
     50 H23          7.3090    -8.0650    -8.1080 ha         1 D7Y       0.142000
     51 H24          9.8100    -6.8840   -11.3680 h4         1 D7Y       0.026100
     52 H25          5.7880    -7.6460   -12.0810 h4         1 D7Y       0.029100
     53 H26         -0.6460    -4.1660    -9.1600 hc         1 D7Y       0.040533
     54 H27         -0.4200    -4.2930   -10.9090 hc         1 D7Y       0.040533
     55 H28          0.9490    -3.8790    -9.8680 hc         1 D7Y       0.040533
     56 H29          0.3150    -5.6230    -7.7850 hn         1 D7Y       0.376800
     57 H31          2.5490    -5.1380    -8.8990 h1         1 D7Y       0.044700
     58 H32          2.6440    -3.1050    -2.2220 hn         1 D7Y       0.321500
     59 H33          4.6980    -6.1890    -9.2540 hn         1 D7Y       0.315500
@<TRIPOS>BOND
     1     2    12 1
     2    11    24 2
     3     1    12 1
     4    12    25 1
     5    12    13 1
     6    24    25 1
     7    24    23 1
     8    23    10 1
     9    10     9 1
    10    17     5 ar
    11    17    27 ar
    12     5    16 ar
    13     9    22 1
    14    27    18 ar
    15    16     4 ar
    16    22     8 1
    17    18     4 ar
    18     4     3 1
    19     8    21 1
    20    21    20 1
    21    21    14 1
    22    20     6 1
    23    26     3 1
    24    26    14 1
    25    14    15 2
    26     7     6 1
    27     6    19 1
    28     1    28 1
    29     1    29 1
    30     1    30 1
    31     2    31 1
    32     2    32 1
    33     2    33 1
    34     3    34 1
    35     3    35 1
    36     5    36 1
    37     6    37 1
    38     7    38 1
    39     7    39 1
    40     7    40 1
    41     8    41 1
    42     8    42 1
    43     9    43 1
    44     9    44 1
    45    10    45 1
    46    10    46 1
    47    13    47 1
    48    13    48 1
    49    13    49 1
    50    16    50 1
    51    17    51 1
    52    18    52 1
    53    19    53 1
    54    19    54 1
    55    19    55 1
    56    20    56 1
    57    21    57 1
    58    23    58 1
    59    26    59 1
@<TRIPOS>SUBSTRUCTURE
     1 D7Y         1 TEMP              0 ****  ****    0 ROOT
