@<TRIPOS>MOLECULE
D80
   33    35     1     0     0
SMALL
bcc


@<TRIPOS>ATOM
      1 NAR         0.0740    0.6430   -0.0140 nh        1 D80     -0.943500
      2 CAG         1.4260    0.3500    0.0340 ca        1 D80      0.736200
      3 NAI         2.0550    0.1720    1.2160 nb        1 D80     -0.763000
      4 CAA         3.4190   -0.0220    1.2500 ca        1 D80      0.465600
      5 CAC         4.0570   -0.1890    2.5230 ca        1 D80     -0.190300
      6 CAE         5.4140   -0.3880    2.6070 ca        1 D80     -0.103000
      7 CAF         6.2230   -0.4350    1.4500 ca        1 D80     -0.153000
      8 CAD         5.6550   -0.2810    0.2080 ca        1 D80     -0.080000
      9 CAB         4.2630   -0.0760    0.0880 ca        1 D80     -0.167300
     10 CAJ         3.5780    0.0900   -1.1330 ca        1 D80      0.102100
     11 OAM         4.0740    0.0790   -2.4270 os        1 D80     -0.297700
     12 CAH         2.1770    0.2950   -1.2040 ca        1 D80     -0.118900
     13 NAK         1.7940    0.4100   -2.5520 nc        1 D80     -0.539100
     14 CAL         2.9210    0.2810   -3.2490 cd        1 D80      0.516600
     15 CAN         3.1970    0.2940   -4.7040 c3        1 D80     -0.086700
     16 CAO         2.4930    1.4430   -5.3990 c3        1 D80     -0.079400
     17 CAP         2.8110    1.4450   -6.8790 c3        1 D80     -0.081400
     18 CAQ         2.1170    2.5810   -7.5860 c3        1 D80     -0.093100
     19 H1         -0.4680    0.5090    0.8070 hn        1 D80      0.432300
     20 H2         -0.3790    0.5100   -0.8860 hn        1 D80      0.432300
     21 H3          3.4390   -0.1530    3.4340 ha        1 D80      0.151000
     22 H4          5.8890   -0.5130    3.5930 ha        1 D80      0.134000
     23 H5          7.3060   -0.5950    1.5560 ha        1 D80      0.136000
     24 H6          6.2630   -0.3130   -0.7090 ha        1 D80      0.142000
     25 H7          2.8560   -0.6860   -5.1370 hc        1 D80      0.073200
     26 H8          4.3080    0.3690   -4.8580 hc        1 D80      0.073200
     27 H9          2.8140    2.4150   -4.9410 hc        1 D80      0.057700
     28 H10         1.3840    1.3540   -5.2490 hc        1 D80      0.057700
     29 H11         3.9200    1.5320   -7.0250 hc        1 D80      0.039700
     30 H12         2.4930    0.4690   -7.3320 hc        1 D80      0.039700
     31 H13         2.3620    2.5660   -8.6750 hc        1 D80      0.035700
     32 H14         1.0090    2.4980   -7.4710 hc        1 D80      0.035700
     33 H15         2.4390    3.5640   -7.1640 hc        1 D80      0.035700
@<TRIPOS>BOND
     1    1    2 1
     2    1   19 1
     3    1   20 1
     4    2    3 ar
     5    2   12 ar
     6    3    4 ar
     7    4    5 ar
     8    4    9 ar
     9    5    6 ar
    10    5   21 1
    11    6    7 ar
    12    6   22 1
    13    7    8 ar
    14    7   23 1
    15    8    9 ar
    16    8   24 1
    17    9   10 ar
    18   10   11 1
    19   10   12 ar
    20   11   14 1
    21   12   13 1
    22   13   14 2
    23   14   15 1
    24   15   16 1
    25   15   25 1
    26   15   26 1
    27   16   17 1
    28   16   27 1
    29   16   28 1
    30   17   18 1
    31   17   29 1
    32   17   30 1
    33   18   31 1
    34   18   32 1
    35   18   33 1
@<TRIPOS>SUBSTRUCTURE
     1 D80         1 TEMP              0 ****  ****    0 ROOT
