@<TRIPOS>MOLECULE
D81
   78    80     1     0     0
SMALL
bcc


@<TRIPOS>ATOM
      1 C13          1.4690     0.0000     0.0000 c3         1 D81       0.068500
      2 C15         -0.5260    -1.3720     0.0370 c3         1 D81       0.112500
      3 C17         -1.8160    -2.9450     1.3490 c3         1 D81      -0.023900
      4 C20          1.9710     0.0000     1.4220 c          1 D81       0.540100
      5 C01         -1.9980     4.4310    -4.8250 c3         1 D81      -0.038100
      6 C02         -2.3380     2.9400    -4.8310 c3         1 D81       0.146800
      7 C04         -1.9240     2.3170    -3.4950 c3         1 D81      -0.038100
      8 C06         -0.2800     2.2680    -5.8100 c2         1 D81       0.218100
      9 C09          1.8170     2.8270    -4.6270 c3         1 D81       0.168500
     10 C16         -0.7520    -1.8280     1.5000 c3         1 D81      -0.040400
     11 C19         -1.9310    -1.4280    -0.5980 c3         1 D81      -0.040400
     12 C03         -3.8440     2.7590    -5.0330 c3         1 D81      -0.038100
     13 C07          0.4280     1.5920    -6.7070 c2         1 D81      -0.393000
     14 C10          2.1610     2.7270    -3.1390 c3         1 D81       0.065700
     15 C12          1.9790     1.2490    -0.7210 c3         1 D81       0.096700
     16 C18         -2.7510    -2.4280     0.2360 c3         1 D81      -0.023900
     17 C23          3.6640    -0.5280     3.0920 c3         1 D81       0.117300
     18 C24          5.0240    -1.1740     3.1460 ca         1 D81      -0.252600
     19 C25          6.1700    -0.4090     2.9880 ca         1 D81      -0.052000
     20 C26          7.4010    -1.0460     3.0430 ca         1 D81      -0.222300
     21 C27          7.4440    -2.4110     3.2520 ca         1 D81       0.415200
     22 C29          5.1470    -2.5340     3.3560 ca         1 D81       0.422200
     23 C30          2.4990     4.0590    -5.2250 c3         1 D81       0.010900
     24 C31          2.2460     4.1010    -6.7100 ca         1 D81      -0.086300
     25 C32          1.2050     4.8590    -7.2130 ca         1 D81      -0.096000
     26 C33          0.9720     4.8970    -8.5750 ca         1 D81      -0.092000
     27 C34          1.7820     4.1780    -9.4350 ca         1 D81      -0.099000
     28 C35          2.8230     3.4200    -8.9320 ca         1 D81      -0.092000
     29 C36          3.0590     3.3870    -7.5710 ca         1 D81      -0.096000
     30 N08          0.3650     2.9470    -4.7850 nu         1 D81      -0.514000
     31 N14          0.0000     0.0000     0.0000 n7         1 D81      -0.565200
     32 N22          3.1760    -0.5300     1.7110 ns         1 D81      -0.189900
     33 N28          6.3340    -3.1070     3.3970 nb         1 D81      -0.579000
     34 O05         -1.6340     2.2950    -5.8950 os         1 D81      -0.292900
     35 O21          1.2900     0.4780     2.3050 o          1 D81      -0.643100
     36 S11          1.4760     1.1890    -2.4630 ss         1 D81      -0.376200
     37 H1           1.8300    -0.8850    -0.5100 h1         1 D81       0.053700
     38 H2           0.1440    -2.0550    -0.4710 h1         1 D81       0.034700
     39 H3          -2.3650    -3.0720     2.2740 hc         1 D81       0.013450
     40 H4          -1.3480    -3.8740     1.0470 hc         1 D81       0.013450
     41 H5          -1.4260     4.6750    -5.7120 hc         1 D81       0.021367
     42 H6          -2.9140     5.0100    -4.8150 hc         1 D81       0.021367
     43 H7          -1.4130     4.6650    -3.9430 hc         1 D81       0.021367
     44 H8          -2.8090     2.0140    -2.9490 hc         1 D81       0.021367
     45 H9          -1.3720     3.0440    -2.9130 hc         1 D81       0.021367
     46 H10         -1.3000     1.4510    -3.6790 hc         1 D81       0.021367
     47 H11          2.1640     1.9380    -5.1380 h1         1 D81       0.071700
     48 H12          0.1630    -2.2270     1.9220 hc         1 D81       0.023950
     49 H13         -1.1370    -1.0120     2.1000 hc         1 D81       0.023950
     50 H14         -1.8600    -1.7730    -1.6230 hc         1 D81       0.023950
     51 H15         -2.3930    -0.4490    -0.5610 hc         1 D81       0.023950
     52 H16         -4.3770     3.2370    -4.2200 hc         1 D81       0.021367
     53 H17         -4.0820     1.7020    -5.0490 hc         1 D81       0.021367
     54 H18         -4.1380     3.2100    -5.9730 hc         1 D81       0.021367
     55 H19          1.5090     1.5710    -6.6400 ha         1 D81       0.119000
     56 H20         -0.0750     1.0620    -7.5070 ha         1 D81       0.119000
     57 H22          3.2370     2.7270    -3.0160 h1         1 D81       0.036200
     58 H23          1.7370     3.5730    -2.6120 h1         1 D81       0.036200
     59 H24          3.0600     1.2860    -0.6590 h1         1 D81       0.036200
     60 H25          1.5600     2.1320    -0.2540 h1         1 D81       0.036200
     61 H26         -3.6070    -1.9290     0.6750 hc         1 D81       0.013450
     62 H27         -3.0740    -3.2520    -0.3880 hc         1 D81       0.013450
     63 H28          2.9760    -1.0830     3.7190 h1         1 D81       0.032700
     64 H29          3.7340     0.4920     3.4490 h1         1 D81       0.032700
     65 H30          6.1050     0.6600     2.8250 ha         1 D81       0.113000
     66 H31          8.3170    -0.4800     2.9250 ha         1 D81       0.116000
     67 H32          8.4010    -2.9160     3.2940 h4         1 D81      -0.017900
     68 H33          4.2560    -3.1390     3.4790 h4         1 D81      -0.014900
     69 H34          2.0980     4.9540    -4.7650 hc         1 D81       0.021700
     70 H35          3.5660     4.0060    -5.0420 hc         1 D81       0.021700
     71 H36          0.5700     5.4220    -6.5390 ha         1 D81       0.103000
     72 H37          0.1560     5.4900    -8.9680 ha         1 D81       0.101000
     73 H38          1.5980     4.2060   -10.5020 ha         1 D81       0.101000
     74 H39          3.4580     2.8590    -9.6060 ha         1 D81       0.101000
     75 H40          3.8750     2.7930    -7.1770 ha         1 D81       0.103000
     76 H41         -0.3340     0.5070     0.7960 hn         1 D81       0.293800
     77 H43          3.7360    -0.9260     0.9830 hn         1 D81       0.181500
     78 H21         -0.1560     3.5480    -4.1780 hn         1 D81       0.330800
@<TRIPOS>BOND
     1     1     4 1   
     2     1    15 1   
     3     1    31 1   
     4     1    37 1   
     5     2    10 1   
     6     2    11 1   
     7     2    31 1   
     8     2    38 1   
     9     3    10 1   
    10     3    16 1   
    11     3    39 1   
    12     3    40 1   
    13     4    32 1   
    14     4    35 2   
    15     5     6 1   
    16     5    41 1   
    17     5    42 1   
    18     5    43 1   
    19     6     7 1   
    20     6    12 1   
    21     6    34 1   
    22     7    44 1   
    23     7    45 1   
    24     7    46 1   
    25     8    13 2   
    26     8    30 1   
    27     8    34 1   
    28     9    14 1   
    29     9    23 1   
    30     9    30 1   
    31     9    47 1   
    32    10    48 1   
    33    10    49 1   
    34    11    16 1   
    35    11    50 1   
    36    11    51 1   
    37    12    52 1   
    38    12    53 1   
    39    12    54 1   
    40    13    55 1   
    41    13    56 1   
    42    14    36 1   
    43    14    57 1   
    44    14    58 1   
    45    15    36 1   
    46    15    59 1   
    47    15    60 1   
    48    16    61 1   
    49    16    62 1   
    50    17    18 1   
    51    17    32 1   
    52    17    63 1   
    53    17    64 1   
    54    18    19 ar  
    55    18    22 ar  
    56    19    20 ar  
    57    19    65 1   
    58    20    21 ar  
    59    20    66 1   
    60    21    33 ar  
    61    21    67 1   
    62    22    33 ar  
    63    22    68 1   
    64    23    24 1   
    65    23    69 1   
    66    23    70 1   
    67    24    25 ar  
    68    24    29 ar  
    69    25    26 ar  
    70    25    71 1   
    71    26    27 ar  
    72    26    72 1   
    73    27    28 ar  
    74    27    73 1   
    75    28    29 ar  
    76    28    74 1   
    77    29    75 1   
    78    30    78 1   
    79    31    76 1   
    80    32    77 1   
@<TRIPOS>SUBSTRUCTURE
     1 D81         1 TEMP              0 ****  ****    0 ROOT
