@<TRIPOS>MOLECULE
molecule
   78    80     1     0     0
SMALL
bcc


@<TRIPOS>ATOM
      1 C13          1.4690     0.0000     0.0000 c3         1 D81       0.110500
      2 C15         -0.5260    -1.3720     0.0370 c3         1 D81       0.156500
      3 C17         -1.8160    -2.9450     1.3490 c3         1 D81      -0.084900
      4 C20          1.9710     0.0000     1.4220 c          1 D81       0.627100
      5 C01         -1.9980     4.4310    -4.8250 c3         1 D81      -0.110767
      6 C02         -2.3380     2.9400    -4.8310 c3         1 D81       0.137800
      7 C04         -1.9240     2.3170    -3.4950 c3         1 D81      -0.110767
      8 C06         -0.2800     2.2680    -5.8100 c2         1 D81       0.326100
      9 C09          1.8170     2.8270    -4.6270 c3         1 D81       0.268500
     10 C16         -0.7520    -1.8280     1.5000 c3         1 D81      -0.094400
     11 C19         -1.9310    -1.4280    -0.5980 c3         1 D81      -0.094400
     12 C03         -3.8440     2.7590    -5.0330 c3         1 D81      -0.110767
     13 C07          0.4280     1.5920    -6.7070 c2         1 D81      -0.397000
     14 C10          2.1610     2.7270    -3.1390 c3         1 D81      -0.013300
     15 C12          1.9790     1.2490    -0.7210 c3         1 D81       0.018700
     16 C18         -2.7510    -2.4280     0.2360 c3         1 D81      -0.084900
     17 C23          3.6640    -0.5280     3.0920 c3         1 D81       0.161300
     18 C24          5.0240    -1.1740     3.1460 ca         1 D81      -0.247600
     19 C25          6.1700    -0.4090     2.9880 ca         1 D81      -0.078000
     20 C26          7.4010    -1.0460     3.0430 ca         1 D81      -0.256300
     21 C27          7.4440    -2.4110     3.2520 ca         1 D81       0.428200
     22 C29          5.1470    -2.5340     3.3560 ca         1 D81       0.435200
     23 C30          2.4990     4.0590    -5.2250 c3         1 D81      -0.053100
     24 C31          2.2460     4.1010    -6.7100 ca         1 D81      -0.076300
     25 C32          1.2050     4.8590    -7.2130 ca         1 D81      -0.119000
     26 C33          0.9720     4.8970    -8.5750 ca         1 D81      -0.121500
     27 C34          1.7820     4.1780    -9.4350 ca         1 D81      -0.126000
     28 C35          2.8230     3.4200    -8.9320 ca         1 D81      -0.121500
     29 C36          3.0590     3.3870    -7.5710 ca         1 D81      -0.119000
     30 N08          0.3650     2.9470    -4.7850 nu         1 D81      -0.864000
     31 N14          0.0000     0.0000     0.0000 n7         1 D81      -0.788200
     32 N22          3.1760    -0.5300     1.7110 ns         1 D81      -0.581900
     33 N28          6.3340    -3.1070     3.3970 nb         1 D81      -0.688000
     34 O05         -1.6340     2.2950    -5.8950 os         1 D81      -0.321900
     35 O21          1.2900     0.4780     2.3050 o          1 D81      -0.609100
     36 S11          1.4760     1.1890    -2.4630 ss         1 D81      -0.292200
     37 H1           1.8300    -0.8850    -0.5100 h1         1 D81       0.076700
     38 H2           0.1440    -2.0550    -0.4710 h1         1 D81       0.059700
     39 H3          -2.3650    -3.0720     2.2740 hc         1 D81       0.043200
     40 H4          -1.3480    -3.8740     1.0470 hc         1 D81       0.043200
     41 H5          -1.4940     4.6830    -3.8990 hc         1 D81       0.049033
     42 H6          -2.9100     5.0090    -4.9070 hc         1 D81       0.049033
     43 H7          -1.3500     4.6570    -5.6620 hc         1 D81       0.049033
     44 H8          -1.5110     3.0840    -2.8520 hc         1 D81       0.049033
     45 H9          -1.1790     1.5510    -3.6700 hc         1 D81       0.049033
     46 H10         -2.7910     1.8750    -3.0190 hc         1 D81       0.049033
     47 H11          2.1640     1.9380    -5.1380 h1         1 D81       0.088700
     48 H12         -1.1370    -1.0120     2.1000 hc         1 D81       0.052700
     49 H13          0.1630    -2.2270     1.9220 hc         1 D81       0.052700
     50 H14         -1.8600    -1.7730    -1.6230 hc         1 D81       0.052700
     51 H15         -2.3930    -0.4490    -0.5610 hc         1 D81       0.052700
     52 H16         -4.0800     1.7020    -5.0570 hc         1 D81       0.049033
     53 H17         -4.1400     3.2170    -5.9690 hc         1 D81       0.049033
     54 H18         -4.3770     3.2300    -4.2160 hc         1 D81       0.049033
     55 H19         -0.0750     1.0620    -7.5070 ha         1 D81       0.130500
     56 H20          1.5090     1.5710    -6.6400 ha         1 D81       0.130500
     57 H22          3.2370     2.7270    -3.0160 h1         1 D81       0.058200
     58 H23          1.7370     3.5730    -2.6120 h1         1 D81       0.058200
     59 H24          1.5600     2.1320    -0.2540 h1         1 D81       0.061200
     60 H25          3.0600     1.2860    -0.6590 h1         1 D81       0.061200
     61 H26         -3.6070    -1.9290     0.6750 hc         1 D81       0.043200
     62 H27         -3.0740    -3.2520    -0.3880 hc         1 D81       0.043200
     63 H28          3.7340     0.4920     3.4490 h1         1 D81       0.061700
     64 H29          2.9760    -1.0830     3.7190 h1         1 D81       0.061700
     65 H30          6.1050     0.6600     2.8250 ha         1 D81       0.142000
     66 H31          8.3170    -0.4800     2.9250 ha         1 D81       0.142000
     67 H32          8.4010    -2.9160     3.2940 h4         1 D81       0.026100
     68 H33          4.2560    -3.1390     3.4790 h4         1 D81       0.028100
     69 H34          2.0980     4.9540    -4.7650 hc         1 D81       0.050200
     70 H35          3.5660     4.0060    -5.0420 hc         1 D81       0.050200
     71 H36          0.5700     5.4220    -6.5390 ha         1 D81       0.125000
     72 H37          0.1560     5.4900    -8.9680 ha         1 D81       0.127500
     73 H38          1.5980     4.2060   -10.5020 ha         1 D81       0.127000
     74 H39          3.4580     2.8590    -9.6060 ha         1 D81       0.127500
     75 H40          3.8750     2.7930    -7.1770 ha         1 D81       0.125000
     76 H41         -0.3340     0.5070     0.7960 hn         1 D81       0.385800
     77 H43          3.7310    -0.9370     0.9850 hn         1 D81       0.320500
     78 H21         -0.1550     3.5530    -4.1820 hn         1 D81       0.443800
@<TRIPOS>BOND
     1    12     6 1
     2    28    27 ar
     3    28    29 ar
     4    27    26 ar
     5    29    24 ar
     6    21    20 ar
     7    21    33 ar
     8     7     6 1
     9     6    34 1
    10     6     5 1
    11    26    25 ar
    12    20    19 ar
    13    34     8 1
    14    33    22 ar
    15    24    25 ar
    16    24    23 1
    17    13     8 2
    18     8    30 1
    19    19    18 ar
    20    22    18 ar
    21    23     9 1
    22    30     9 1
    23    18    17 1
    24     9    14 1
    25    10     3 1
    26    10     2 1
    27     3    16 1
    28    17    32 1
    29    31     1 1
    30    31     2 1
    31    32     4 1
    32    14    36 1
    33     1     4 1
    34     1    15 1
    35     4    35 2
    36     2    11 1
    37    36    15 1
    38    16    11 1
    39     1    37 1
    40     2    38 1
    41     3    39 1
    42     3    40 1
    43     5    41 1
    44     5    42 1
    45     5    43 1
    46     7    44 1
    47     7    45 1
    48     7    46 1
    49     9    47 1
    50    10    48 1
    51    10    49 1
    52    11    50 1
    53    11    51 1
    54    12    52 1
    55    12    53 1
    56    12    54 1
    57    13    55 1
    58    13    56 1
    59    14    57 1
    60    14    58 1
    61    15    59 1
    62    15    60 1
    63    16    61 1
    64    16    62 1
    65    17    63 1
    66    17    64 1
    67    19    65 1
    68    20    66 1
    69    21    67 1
    70    22    68 1
    71    23    69 1
    72    23    70 1
    73    25    71 1
    74    26    72 1
    75    27    73 1
    76    28    74 1
    77    29    75 1
    78    31    76 1
    79    32    77 1
    80    30    78 1
@<TRIPOS>SUBSTRUCTURE
     1 D81         1 TEMP              0 ****  ****    0 ROOT
