@<TRIPOS>MOLECULE
D83
   48    51     1     0     0
SMALL
bcc


@<TRIPOS>ATOM
      1 NAA          0.0000     0.0000     0.0000 n2         1 D83      -0.453100
      2 NAB         10.4810     0.0250    14.3080 nz         1 D83       0.121400
      3 NAC          1.9920    -0.0030    -1.1930 nz         1 D83       0.124400
      4 NAD         11.6030     0.0130    12.2740 n2         1 D83      -0.486100
      5 CAE          1.3450     0.0030     2.4910 ca         1 D83      -0.049000
      6 CAF          3.4390     0.0000     1.2810 ca         1 D83      -0.049000
      7 CAG          2.0340     0.0000     3.6830 ca         1 D83      -0.088500
      8 CAH          4.1270    -0.0090     2.4740 ca         1 D83      -0.088500
      9 CAI          5.5670    -0.0160     4.9650 ca         1 D83      -0.070000
     10 CAJ          3.4730    -0.0070     6.1740 ca         1 D83      -0.070000
     11 CAK          6.2550    -0.0140     6.1560 ca         1 D83      -0.083500
     12 CAL          4.1600     0.0010     7.3660 ca         1 D83      -0.083500
     13 CAM          7.9840     0.0290    12.9020 ca         1 D83      -0.152000
     14 CAN          6.7940     0.0300    12.2370 ca         1 D83       0.004000
     15 CAO          9.1920     0.0160    10.8020 ca         1 D83       0.027000
     16 CAP          5.7310     0.0170     9.8790 cc         1 D83      -0.141200
     17 NAQ          7.6660    -0.0010     8.7740 na         1 D83       0.401600
     18 CAR          1.3030     0.0000     0.0000 ce         1 D83       0.230800
     19 CAT          2.0430     0.0020     1.2820 ca         1 D83      -0.205900
     20 CAU          9.1930     0.0220    12.1940 ca         1 D83      -0.201900
     21 CAV          3.4300    -0.0060     3.6820 cp         1 D83       0.039000
     22 CAW          4.1710    -0.0090     4.9660 cp         1 D83      -0.063000
     23 CAX          5.5580    -0.0050     7.3670 ca         1 D83      -0.015800
     24 CAY          6.2960     0.0030     8.6460 cd         1 D83      -0.128300
     25 CAZ          6.7750     0.0190    10.8350 ca         1 D83      -0.082800
     26 CBA          7.9870     0.0050    10.1150 ca         1 D83      -0.272200
     27 HNAA        -0.5010    -0.0020    -0.8660 hn         1 D83       0.339400
     28 HNAB        10.0070    -0.7890    14.6470 hn         1 D83       0.228467
     29 HNAC        11.4250     0.0230    14.6390 hn         1 D83       0.228467
     30 HNAD         2.5680     0.8140    -1.2480 hn         1 D83       0.227800
     31 HNAE         1.3410    -0.0030    -1.9540 hn         1 D83       0.227800
     32 HNAF        12.4710     0.0110    12.7710 hn         1 D83       0.338400
     33 HAE          0.2620     0.0060     2.4910 ha         1 D83       0.107500
     34 HAF          3.9810    -0.0010     0.3430 ha         1 D83       0.107500
     35 HAG          1.4930     0.0020     4.6210 ha         1 D83       0.131500
     36 HAH          5.2110    -0.0120     2.4740 ha         1 D83       0.131500
     37 HAI          6.1080    -0.0200     4.0270 ha         1 D83       0.116000
     38 HAJ          2.3900    -0.0020     6.1730 ha         1 D83       0.116000
     39 HAK          7.3380    -0.0190     6.1550 ha         1 D83       0.112500
     40 HAL          3.6180     0.0050     8.3040 ha         1 D83       0.112500
     41 HAM          7.9940     0.0340    13.9850 ha         1 D83       0.081000
     42 HAN          5.8640     0.0360    12.7910 ha         1 D83       0.120000
     43 HAO         10.1280     0.0100    10.2580 ha         1 D83       0.125000
     44 HAP          4.7300     0.0280    10.2940 ha         1 D83       0.150000
     45 HNAQ         8.4430    -0.0110     8.1440 hn         1 D83       0.131700
     46 HAB3        10.0050     0.8460    14.6270 hn         1 D83       0.228467
     47 HAC3         2.5710    -0.8170    -1.2420 hn         1 D83       0.227800
     48 CAS         10.4760     0.0190    12.9290 ce         1 D83       0.246800
@<TRIPOS>BOND
     1     1    18 2   
     2     1    27 1   
     3     2    28 1   
     4     2    29 1   
     5     2    46 1   
     6     2    48 1   
     7     3    18 1   
     8     3    30 1   
     9     3    31 1   
    10     3    47 1   
    11     4    32 1   
    12     4    48 2   
    13     5     7 ar  
    14     5    19 ar  
    15     5    33 1   
    16     6     8 ar  
    17     6    19 ar  
    18     6    34 1   
    19     7    21 ar  
    20     7    35 1   
    21     8    21 ar  
    22     8    36 1   
    23     9    11 ar  
    24     9    22 ar  
    25     9    37 1   
    26    10    12 ar  
    27    10    22 ar  
    28    10    38 1   
    29    11    23 ar  
    30    11    39 1   
    31    12    23 ar  
    32    12    40 1   
    33    13    14 ar  
    34    13    20 ar  
    35    13    41 1   
    36    14    25 ar  
    37    14    42 1   
    38    15    20 ar  
    39    15    26 ar  
    40    15    43 1   
    41    16    24 2   
    42    16    25 1   
    43    16    44 1   
    44    17    24 1   
    45    17    26 1   
    46    17    45 1   
    47    18    19 1   
    48    20    48 1   
    49    21    22 1   
    50    23    24 1   
    51    25    26 ar  
@<TRIPOS>SUBSTRUCTURE
     1 D83         1 TEMP              0 ****  ****    0 ROOT
