@<TRIPOS>MOLECULE
molecule
   48    51     1     0     0
SMALL
bcc


@<TRIPOS>ATOM
      1 NAA          0.0000     0.0000     0.0000 n2         1 D83      -0.714100
      2 NAB         10.4810     0.0250    14.3080 nz         1 D83      -0.741600
      3 NAC          1.9920    -0.0030    -1.1930 nz         1 D83      -0.741600
      4 NAD         11.6030     0.0130    12.2740 n2         1 D83      -0.729100
      5 CAE          1.3450     0.0030     2.4910 ca         1 D83      -0.091000
      6 CAF          3.4390     0.0000     1.2810 ca         1 D83      -0.091000
      7 CAG          2.0340     0.0000     3.6830 ca         1 D83      -0.103000
      8 CAH          4.1270    -0.0090     2.4740 ca         1 D83      -0.103000
      9 CAI          5.5670    -0.0160     4.9650 ca         1 D83      -0.096500
     10 CAJ          3.4730    -0.0070     6.1740 ca         1 D83      -0.096500
     11 CAK          6.2550    -0.0140     6.1560 ca         1 D83      -0.102000
     12 CAL          4.1600     0.0010     7.3660 ca         1 D83      -0.102000
     13 CAM          7.9840     0.0290    12.9020 ca         1 D83      -0.159000
     14 CAN          6.7940     0.0300    12.2370 ca         1 D83      -0.043000
     15 CAO          9.1920     0.0160    10.8020 ca         1 D83      -0.070000
     16 CAP          5.7310     0.0170     9.8790 cc         1 D83      -0.178200
     17 NAQ          7.6660    -0.0010     8.7740 na         1 D83      -0.158400
     18 CAR          1.3030     0.0000     0.0000 ce         1 D83       0.517800
     19 CAT          2.0430     0.0020     1.2820 ca         1 D83      -0.239900
     20 CAU          9.1930     0.0220    12.1940 ca         1 D83      -0.226900
     21 CAV          3.4300    -0.0060     3.6820 cp         1 D83       0.028000
     22 CAW          4.1710    -0.0090     4.9660 cp         1 D83      -0.057000
     23 CAX          5.5580    -0.0050     7.3670 ca         1 D83      -0.028800
     24 CAY          6.2960     0.0030     8.6460 cd         1 D83       0.066700
     25 CAZ          6.7750     0.0190    10.8350 ca         1 D83      -0.070800
     26 CBA          7.9870     0.0050    10.1150 ca         1 D83      -0.064200
     27 HNAA        -0.5020     0.0020     0.8660 hn         1 D83       0.483400
     28 HNAB        10.0100    -0.7910    14.6470 hn         1 D83       0.475800
     29 HNAC        11.4270     0.0250    14.6340 hn         1 D83       0.475800
     30 HNAD         2.5570     0.8210    -1.2540 hn         1 D83       0.475133
     31 HNAE         2.5770    -0.8130    -1.2390 hn         1 D83       0.475133
     32 HNAF        11.6010     0.0090    11.2740 hn         1 D83       0.477400
     33 HAE          0.2620     0.0060     2.4910 ha         1 D83       0.129000
     34 HAF          3.9810    -0.0010     0.3430 ha         1 D83       0.129000
     35 HAG          1.4930     0.0020     4.6210 ha         1 D83       0.161500
     36 HAH          5.2110    -0.0120     2.4740 ha         1 D83       0.161500
     37 HAI          6.1080    -0.0200     4.0270 ha         1 D83       0.143500
     38 HAJ          2.3900    -0.0020     6.1730 ha         1 D83       0.143500
     39 HAK          7.3380    -0.0190     6.1550 ha         1 D83       0.143500
     40 HAL          3.6180     0.0050     8.3040 ha         1 D83       0.143500
     41 HAM          7.9940     0.0340    13.9850 ha         1 D83       0.111000
     42 HAN          5.8640     0.0360    12.7910 ha         1 D83       0.159000
     43 HAO         10.1280     0.0100    10.2580 ha         1 D83       0.133000
     44 HAP          4.7280     0.0270    10.2880 ha         1 D83       0.179000
     45 HNAQ         8.4340    -0.0100     8.1320 hn         1 D83       0.317700
     46 HAB3        10.0010     0.8430    14.6280 hn         1 D83       0.475800
     47 HAC3         1.3410    -0.0250    -1.9530 hn         1 D83       0.475133
     48 CAS         10.4760     0.0190    12.9290 ce         1 D83       0.526800
@<TRIPOS>BOND
     1     2    48 1
     2     4    48 2
     3    48    20 1
     4    20    13 ar
     5    20    15 ar
     6    13    14 ar
     7    15    26 ar
     8    14    25 ar
     9    26    25 ar
    10    26    17 1
    11    25    16 1
    12    17    24 1
    13    16    24 2
    14    24    23 1
    15    23    12 ar
    16    23    11 ar
    17    12    10 ar
    18    11     9 ar
    19    10    22 ar
    20     9    22 ar
    21    22    21 1
    22    21     7 ar
    23    21     8 ar
    24     7     5 ar
    25     8     6 ar
    26     5    19 ar
    27     6    19 ar
    28    19    18 1
    29     3    18 1
    30    18     1 2
    31     1    27 1
    32     2    28 1
    33     2    29 1
    34     3    30 1
    35     3    31 1
    36     4    32 1
    37     5    33 1
    38     6    34 1
    39     7    35 1
    40     8    36 1
    41     9    37 1
    42    10    38 1
    43    11    39 1
    44    12    40 1
    45    13    41 1
    46    14    42 1
    47    15    43 1
    48    16    44 1
    49    17    45 1
    50    46     2 1
    51    47     3 1
@<TRIPOS>SUBSTRUCTURE
     1 D83         1 TEMP              0 ****  ****    0 ROOT
