@<TRIPOS>MOLECULE
D86
   24    24     1     0     0
SMALL
bcc


@<TRIPOS>ATOM
      1 C1           0.0000     0.0000     0.0000 c3         1 D86      -0.033400
      2 C6           1.5310     0.0000     0.0000 c3         1 D86      -0.029900
      3 C5           2.0380     0.0000     1.4450 c3         1 D86      -0.050200
      4 N4           1.4340    -1.1350     2.1570 nh         1 D86       0.224900
      5 C3          -0.0280    -1.2810     2.1440 c3         1 D86      -0.050200
      6 C2          -0.5110    -1.2660     0.6910 c3         1 D86      -0.029900
      7 C7           2.2190    -2.0390     2.8210 c2         1 D86      -0.149300
      8 N8           3.4130    -2.3670     2.3330 nz         1 D86       0.160400
      9 N9           1.7880    -2.5910     3.9530 nv         1 D86       0.240800
     10 H1          -0.3600     0.0220    -1.0220 hc         1 D86       0.062700
     11 H2          -0.3600     0.8710     0.5340 hc         1 D86       0.062700
     12 H3           1.8920    -0.8860    -0.5080 hc         1 D86       0.056200
     13 H4           1.8910     0.8860    -0.5080 hc         1 D86       0.056200
     14 H6           1.7510     0.9260     1.9290 h1         1 D86       0.061700
     15 H5           3.1160    -0.1010     1.4510 h1         1 D86       0.061700
     16 H7          -0.4790    -0.4570     2.6840 h1         1 D86       0.061700
     17 H8          -0.3020    -2.2200     2.6080 h1         1 D86       0.061700
     18 H9          -1.5940    -1.2750     0.6710 hc         1 D86       0.056200
     19 H10         -0.1280    -2.1380     0.1750 hc         1 D86       0.056200
     20 H11          3.3480    -2.4860     1.3410 hn         1 D86       0.258133
     21 H12          3.7210    -3.2220     2.7520 hn         1 D86       0.258133
     22 H13          0.8900    -2.3450     4.3210 hn         1 D86       0.172200
     23 H14          2.3620    -3.2520     4.4380 hn         1 D86       0.172200
     24 H83          4.0690    -1.6400     2.5390 hn         1 D86       0.258133
@<TRIPOS>BOND
     1     1     2 1   
     2     1     6 1   
     3     1    10 1   
     4     1    11 1   
     5     2     3 1   
     6     2    12 1   
     7     2    13 1   
     8     3     4 1   
     9     3    14 1   
    10     3    15 1   
    11     4     5 1   
    12     4     7 2   
    13     5     6 1   
    14     5    16 1   
    15     5    17 1   
    16     6    18 1   
    17     6    19 1   
    18     7     8 1   
    19     7     9 1   
    20     8    20 1   
    21     8    21 1   
    22     8    24 1   
    23     9    22 1   
    24     9    23 1   
@<TRIPOS>SUBSTRUCTURE
     1 D86         1 TEMP              0 ****  ****    0 ROOT
