@<TRIPOS>MOLECULE
molecule
   24    24     1     0     0
SMALL
bcc


@<TRIPOS>ATOM
      1 C1           0.0000     0.0000     0.0000 c3         1 D86      -0.091400
      2 C6           1.5310     0.0000     0.0000 c3         1 D86      -0.097900
      3 C5           2.0380     0.0000     1.4450 c3         1 D86       0.007800
      4 N4           1.4340    -1.1350     2.1570 nh         1 D86      -0.211100
      5 C3          -0.0280    -1.2810     2.1440 c3         1 D86       0.007800
      6 C2          -0.5110    -1.2660     0.6910 c3         1 D86      -0.097900
      7 C7           2.2190    -2.0390     2.8210 c2         1 D86       0.444700
      8 N8           3.4130    -2.3670     2.3330 nz         1 D86      -0.782600
      9 N9           1.7880    -2.5910     3.9530 nv         1 D86      -0.397200
     10 H1          -0.3600     0.8710     0.5340 hc         1 D86       0.096700
     11 H2          -0.3600     0.0220    -1.0220 hc         1 D86       0.096700
     12 H3           1.8910     0.8860    -0.5080 hc         1 D86       0.092700
     13 H4           1.8910    -0.8860    -0.5080 hc         1 D86       0.092700
     14 H6           1.7510     0.9260     1.9290 h1         1 D86       0.095950
     15 H5           3.1160    -0.1010     1.4510 h1         1 D86       0.095950
     16 H7          -0.3020    -2.2200     2.6080 h1         1 D86       0.095950
     17 H8          -0.4790    -0.4570     2.6840 h1         1 D86       0.095950
     18 H9          -1.5940    -1.2750     0.6710 hc         1 D86       0.092700
     19 H10         -0.1270    -2.1380     0.1750 hc         1 D86       0.092700
     20 H11          3.3480    -2.4870     1.3410 hn         1 D86       0.512467
     21 H12          3.7220    -3.2210     2.7530 hn         1 D86       0.512467
     22 H13          2.3620    -3.2520     4.4380 hn         1 D86       0.366200
     23 H14          0.8900    -2.3450     4.3200 hn         1 D86       0.366200
     24 H83          4.0690    -1.6390     2.5380 hn         1 D86       0.512467
@<TRIPOS>BOND
     1     9     7 1
     2     8     7 1
     3     7     4 2
     4     4     5 1
     5     4     3 1
     6     5     6 1
     7     3     2 1
     8     6     1 1
     9     2     1 1
    10     1    10 1
    11     1    11 1
    12     2    12 1
    13     2    13 1
    14     3    14 1
    15     3    15 1
    16     5    16 1
    17     5    17 1
    18     6    18 1
    19     6    19 1
    20     8    20 1
    21     8    21 1
    22     9    22 1
    23     9    23 1
    24    24     8 1
@<TRIPOS>SUBSTRUCTURE
     1 D86         1 TEMP              0 ****  ****    0 ROOT
