@<TRIPOS>MOLECULE
D87
   34    36     1     0     0
SMALL
bcc


@<TRIPOS>ATOM
      1 CAQ         0.0250    0.0660   -0.0500 c3        1 D87     -0.093100
      2 CAP         1.5300    0.1210    0.0160 c3        1 D87     -0.080400
      3 CAO         2.0240   -0.0310    1.4390 c3        1 D87     -0.077400
      4 CAN         3.5400    0.0260    1.4920 c3        1 D87     -0.023200
      5 CAL         4.0440   -0.1350    2.8670 cc        1 D87      0.041900
      6 CAM         4.3310   -1.2360    3.6500 cd        1 D87     -0.177200
      7 OAK         4.3130    1.0650    3.5570 os        1 D87     -0.183200
      8 CAH         4.7800    0.6730    4.8090 ca        1 D87     -0.112200
      9 CAJ         4.8090   -0.7310    4.9180 ca        1 D87     -0.040800
     10 CAB         5.2540   -1.3080    6.1350 ca        1 D87     -0.133300
     11 CAD         5.3300   -2.7010    6.3520 ca        1 D87     -0.099000
     12 CAF         5.7680   -3.1950    7.5600 ca        1 D87     -0.141000
     13 CAE         6.1440   -2.3080    8.5900 ca        1 D87     -0.120000
     14 CAC         6.0820   -0.9460    8.4120 ca        1 D87     -0.176300
     15 CAA         5.6330   -0.3920    7.1710 ca        1 D87      0.427600
     16 NAI         5.5850    0.9850    7.0480 nb        1 D87     -0.731000
     17 CAG         5.1890    1.5360    5.8880 ca        1 D87      0.683200
     18 NAR         5.2340    2.9160    5.6770 nh        1 D87     -0.925500
     19 H1         -0.3200    0.1790   -1.1060 hc        1 D87      0.035033
     20 H2         -0.4270    0.8850    0.5590 hc        1 D87      0.035033
     21 H3         -0.3510   -0.9110    0.3410 hc        1 D87      0.035033
     22 H4          1.9660   -0.6930   -0.6210 hc        1 D87      0.040200
     23 H5          1.8900    1.0980   -0.4030 hc        1 D87      0.040200
     24 H6          1.6670   -1.0070    1.8610 hc        1 D87      0.049700
     25 H7          1.5970    0.7850    2.0790 hc        1 D87      0.049700
     26 H8          3.8940    1.0080    1.0760 hc        1 D87      0.067200
     27 H9          3.9740   -0.7930    0.8560 hc        1 D87      0.067200
     28 H10         4.2260   -2.2840    3.3820 ha        1 D87      0.168000
     29 H11         5.0330   -3.3780    5.5370 ha        1 D87      0.132000
     30 H12         5.8290   -4.2790    7.7320 ha        1 D87      0.133000
     31 H13         6.4920   -2.7210    9.5490 ha        1 D87      0.133000
     32 H14         6.3800   -0.2630    9.2240 ha        1 D87      0.148000
     33 H15         5.3150    3.4860    6.4880 hn        1 D87      0.414300
     34 H16         4.5900    3.2420    4.9920 hn        1 D87      0.414300
@<TRIPOS>BOND
     1    1    2 1
     2    1   19 1
     3    1   20 1
     4    1   21 1
     5    2    3 1
     6    2   22 1
     7    2   23 1
     8    3    4 1
     9    3   24 1
    10    3   25 1
    11    4    5 1
    12    4   26 1
    13    4   27 1
    14    5    6 2
    15    5    7 1
    16    6    9 1
    17    6   28 1
    18    7    8 1
    19    8    9 ar
    20    8   17 ar
    21    9   10 ar
    22   10   11 ar
    23   10   15 ar
    24   11   12 ar
    25   11   29 1
    26   12   13 ar
    27   12   30 1
    28   13   14 ar
    29   13   31 1
    30   14   15 ar
    31   14   32 1
    32   15   16 ar
    33   16   17 ar
    34   17   18 1
    35   18   33 1
    36   18   34 1
@<TRIPOS>SUBSTRUCTURE
     1 D87         1 TEMP              0 ****  ****    0 ROOT
