@<TRIPOS>MOLECULE
D88
   66    69     1     0     0
SMALL
bcc


@<TRIPOS>ATOM
      1 CAA         0.2820    0.3040   -0.7370 c3        1 D88      0.100700
      2 CAC         7.7160    0.1770   -1.2460 c3        1 D88      0.176800
      3 NAD        -0.0020    0.0770    7.8810 n1        1 D88     -0.284800
      4 CL1        -3.3630   -5.1090    4.4380 cl        1 D88      0.028600
      5 CL2        -1.1280   -4.5210    2.3430 cl        1 D88     -0.001400
      6 CAH         2.8280    0.0430    5.8120 ca        1 D88      0.451200
      7 CAI        -1.5850   -3.3530    3.4730 ca        1 D88      0.044400
      8 CAJ        -2.2860   -1.3570    5.3240 ca        1 D88     -0.202000
      9 CAK         3.9660    0.1360    2.3770 ca        1 D88     -0.252300
     10 CAL         1.1670    0.1880    1.9490 ca        1 D88     -0.268000
     11 CAM         6.1890    0.1610   -1.3100 c3        1 D88     -0.090400
     12 CAN         5.6390    0.1610    0.1050 c3        1 D88      0.121400
     13 CAO        11.0640    1.5710   -4.5680 c3        1 D88      0.148100
     14 CAP         9.7610   -0.4020   -2.3820 c3        1 D88      0.133300
     15 CAQ         8.0820    0.9360   -3.5210 c3        1 D88      0.133300
     16 CAR        10.4670   -0.6310   -3.7360 c3        1 D88      0.164300
     17 CAS         8.8190    0.6900   -4.8560 c3        1 D88      0.164300
     18 NAT         3.6320    0.0570    4.7620 nb        1 D88     -0.602000
     19 OAV         1.6770    0.2670   -0.4370 os        1 D88     -0.271900
     20 CAX        -2.9300   -2.5980    5.3490 ca        1 D88      0.179100
     21 CAY        -2.5880   -3.6160    4.4160 ca        1 D88      0.024400
     22 CAZ        -0.9270   -2.1150    3.4400 ca        1 D88     -0.126000
     23 CBA         1.4030    0.0810    5.7170 ca        1 D88     -0.092300
     24 CBB        -1.2890   -1.1290    4.3590 ca        1 D88     -0.009400
     25 CBC         2.0340    0.2170    0.8790 ca        1 D88      0.191100
     26 CBD         3.4690    0.1890    1.0970 ca        1 D88      0.171100
     27 CBE         0.8310    0.1270    4.4410 ca        1 D88      0.029600
     28 CBF         3.0830    0.1100    3.5050 ca        1 D88      0.449600
     29 CBG         1.6600    0.1400    3.2820 ca        1 D88     -0.116300
     30 NBH         8.3430   -0.0980   -2.5300 n3        1 D88     -0.727600
     31 NBI        10.2370    0.3970   -4.7360 n3        1 D88     -0.718600
     32 C01        -4.2250   -1.9560    7.2560 c3        1 D88      0.102700
     33 HAA1       -0.2220   -0.6230   -0.3710 h1        1 D88      0.060033
     34 HAA2       -0.1900    1.2170   -0.3010 h1        1 D88      0.060033
     35 HAA3        0.2700    0.3460   -1.8580 h1        1 D88      0.060033
     36 H011       -3.3250   -1.7390    7.8810 h1        1 D88      0.065367
     37 H012       -4.6370   -1.0240    6.7990 h1        1 D88      0.065367
     38 H013       -5.0110   -2.4830    7.8590 h1        1 D88      0.065367
     39 HAC1        8.0440    1.1720   -0.8200 h1        1 D88      0.031700
     40 HAC2        8.0530   -0.6250   -0.5270 h1        1 D88      0.031700
     41 HAM1        5.8070    1.0600   -1.8580 hc        1 D88      0.072700
     42 HAM2        5.8220   -0.7480   -1.8550 hc        1 D88      0.072700
     43 HAH         3.3110    0.0010    6.8100 h4        1 D88      0.068100
     44 HAZ        -0.1250   -1.9460    2.7000 ha        1 D88      0.177000
     45 HAJ        -2.5620   -0.5830    6.0580 ha        1 D88      0.165000
     46 HAK         5.0530    0.1120    2.5640 ha        1 D88      0.187000
     47 HAL         0.0870    0.1940    1.7460 ha        1 D88      0.131000
     48 HAN1        5.9110   -0.7790    0.6530 h1        1 D88      0.052700
     49 HAN2        5.9810    1.0580    0.6830 h1        1 D88      0.052700
     50 HAO1       12.1410    1.2590   -4.5760 h1        1 D88      0.033700
     51 HAO2       10.8870    2.2650   -5.4310 h1        1 D88      0.033700
     52 HAO3       10.8620    2.1310   -3.6140 h1        1 D88      0.033700
     53 HAP1        9.8470   -1.3490   -1.7800 h1        1 D88      0.034200
     54 HAP2       10.3040    0.4150   -1.8230 h1        1 D88      0.034200
     55 HAR1       11.5700   -0.7250   -3.5380 h1        1 D88      0.061950
     56 HAR2       10.1030   -1.6020   -4.1770 h1        1 D88      0.061950
     57 HAQ1        8.3610    1.9610   -3.1350 h1        1 D88      0.034200
     58 HAQ2        6.9760    0.9370   -3.7310 h1        1 D88      0.034200
     59 HAS1        8.3470   -0.1920   -5.3730 h1        1 D88      0.061950
     60 HAS2        8.6750    1.5980   -5.5030 h1        1 D88      0.061950
     61 HAU        -0.8750    0.6440    3.4240 hn        1 D88      0.464800
     62 NAU        -0.6330    0.1890    4.3160 n4        1 D88     -0.503800
     63 OAW         4.2050    0.2210   -0.0490 os        1 D88     -0.286900
     64 HAU2       -1.0010    0.7670    5.0870 hn        1 D88      0.464800
     65 CAG         0.6230    0.0810    6.9000 cg        1 D88      0.188800
     66 O02        -3.9180   -2.9150    6.2430 os        1 D88     -0.287900
@<TRIPOS>BOND
     1    1   19 1   
     2    1   33 1   
     3    1   34 1   
     4    1   35 1   
     5    2   11 1   
     6    2   30 1   
     7    2   39 1   
     8    2   40 1   
     9    3   65 3   
    10    4   21 1   
    11    5    7 1   
    12    6   18 ar  
    13    6   23 ar  
    14    6   43 1   
    15    7   21 ar  
    16    7   22 ar  
    17    8   20 ar  
    18    8   24 ar  
    19    8   45 1   
    20    9   26 ar  
    21    9   28 ar  
    22    9   46 1   
    23   10   25 ar  
    24   10   29 ar  
    25   10   47 1   
    26   11   12 1   
    27   11   41 1   
    28   11   42 1   
    29   12   48 1   
    30   12   49 1   
    31   12   63 1   
    32   13   31 1   
    33   13   50 1   
    34   13   51 1   
    35   13   52 1   
    36   14   16 1   
    37   14   30 1   
    38   14   53 1   
    39   14   54 1   
    40   15   17 1   
    41   15   30 1   
    42   15   57 1   
    43   15   58 1   
    44   16   31 1   
    45   16   55 1   
    46   16   56 1   
    47   17   31 1   
    48   17   59 1   
    49   17   60 1   
    50   18   28 ar  
    51   19   25 1   
    52   20   21 ar  
    53   20   66 1   
    54   22   24 ar  
    55   22   44 1   
    56   23   27 ar  
    57   23   65 1   
    58   24   62 1   
    59   25   26 ar  
    60   26   63 1   
    61   27   29 ar  
    62   27   62 1   
    63   28   29 ar  
    64   32   36 1   
    65   32   37 1   
    66   32   38 1   
    67   32   66 1   
    68   61   62 1   
    69   62   64 1   
@<TRIPOS>SUBSTRUCTURE
     1 D88         1 TEMP              0 ****  ****    0 ROOT
