@<TRIPOS>MOLECULE
molecule
   65    68     1     0     0
SMALL
bcc


@<TRIPOS>ATOM
      1 CAA          0.0000     0.0000     0.0000 c3         1 D88       0.106700
      2 CAC          7.7610    -0.0090    -0.9860 c3         1 D88       0.068800
      3 NAD          0.6350     0.0100     8.2590 n1         1 D88      -0.352800
      4 Cl1         -3.1380    -5.1080     4.3930 cl         1 D88      -0.077400
      5 Cl2         -0.0300    -5.0750     4.1430 cl         1 D88      -0.073400
      6 CAH          3.2890     0.0020     5.9960 ca         1 D88       0.461200
      7 CAI         -0.8950    -3.5910     4.3940 ca         1 D88       0.099400
      8 CAJ         -2.2810    -1.2210     4.7930 ca         1 D88      -0.285000
      9 CAK          4.0940    -0.0020     2.4910 ca         1 D88      -0.268300
     10 CAL          1.2980    -0.0010     2.3520 ca         1 D88      -0.232000
     11 CAM          6.2380    -0.0080    -1.1290 c3         1 D88      -0.132400
     12 CAN          5.5960    -0.0060     0.2610 c3         1 D88       0.130400
     13 CAO         10.4600     2.0690    -4.9810 c3         1 D88       0.192100
     14 CAP          9.6310    -0.4270    -2.9370 c3         1 D88       0.054300
     15 CAQ          7.8750     1.0950    -3.6150 c3         1 D88       0.054300
     16 CAR         10.1160    -0.5130    -4.3860 c3         1 D88       0.215800
     17 CAS          8.3600     1.0090    -5.0640 c3         1 D88       0.215800
     18 NAT          3.9590     0.0000     4.8710 nb         1 D88      -0.663000
     19 OAV          1.4290     0.0000     0.0000 os         1 D88      -0.273900
     20 CAX         -2.9700    -2.4190     4.7040 ca         1 D88       0.175100
     21 CAY         -2.2740    -3.6060     4.5040 ca         1 D88      -0.046600
     22 CAZ         -0.2050    -2.3960     4.4890 ca         1 D88      -0.222000
     23 CBA          1.8850     0.0010     6.0150 ca         1 D88      -0.173300
     24 CBB         -0.8970    -1.2070     4.6880 ca         1 D88       0.247600
     25 CBC          2.0470    -0.0000     1.2110 ca         1 D88       0.166100
     26 CBD          3.4470    -0.0040     1.2770 ca         1 D88       0.167100
     27 CBE          1.1810     0.0010     4.8010 ca         1 D88       0.205600
     28 CBF          3.3460    -0.0010     3.6780 ca         1 D88       0.450600
     29 CBG          1.9330    -0.0010     3.6030 ca         1 D88      -0.200300
     30 NBH          8.1850    -0.1630    -2.9210 n3         1 D88      -0.565600
     31 NBI          9.8060     0.7440    -5.0790 n3         1 D88      -0.786600
     32 C01         -4.9740    -1.1770     5.0060 c3         1 D88       0.102700
     33 HAA1        -0.5720     0.8350     0.3870 h1         1 D88       0.043700
     34 HAA2        -0.6270    -0.7120     0.5230 h1         1 D88       0.043700
     35 HAA3        -0.2110    -0.3640    -0.9980 h1         1 D88       0.043700
     36 H011        -5.9700    -1.5310     4.7710 h1         1 D88       0.058700
     37 H012        -4.8510    -0.5320     5.8670 h1         1 D88       0.058700
     38 H013        -4.7530    -0.8100     4.0110 h1         1 D88       0.058700
     39 HAC1         7.9490     1.0100    -1.3040 h1         1 D88       0.041200
     40 HAC2         7.9180     0.2230     0.0610 h1         1 D88       0.041200
     41 HAM1         6.1530    -0.6680    -1.9840 hc         1 D88       0.091200
     42 HAM2         5.6100     0.8750    -1.1240 hc         1 D88       0.091200
     43 HAH          3.4460    -0.3390     7.0120 h4         1 D88       0.049100
     44 HAZ          0.8360    -2.4580     4.1940 ha         1 D88       0.162000
     45 HAJ         -2.9830    -0.4440     5.0710 ha         1 D88       0.151000
     46 HAK          5.1660    -0.1500     2.5370 ha         1 D88       0.167000
     47 HAL          0.3380    -0.0320     2.8540 ha         1 D88       0.189000
     48 HAN1         5.8370     0.7840     0.9620 h1         1 D88       0.034200
     49 HAN2         5.5630    -0.9310     0.8240 h1         1 D88       0.034200
     50 HAO1         9.8490     2.7800    -4.4380 h1         1 D88       0.018700
     51 HAO2        11.3060     2.1490    -4.3100 h1         1 D88       0.018700
     52 HAO3        10.7180     2.7650    -5.7700 h1         1 D88       0.018700
     53 HAP1        10.3470    -0.0690    -2.2070 h1         1 D88       0.056950
     54 HAP2         9.8430    -1.4440    -2.6310 h1         1 D88       0.056950
     55 HAR1         9.8940    -1.2860    -5.1120 h1         1 D88       0.059700
     56 HAR2        11.1780    -0.7030    -4.2930 h1         1 D88       0.059700
     57 HAQ1         6.7980     1.0030    -3.5370 h1         1 D88       0.056950
     58 HAQ2         8.3100     1.8560    -2.9790 h1         1 D88       0.056950
     59 HAS1         7.7220     0.3520    -5.6420 h1         1 D88       0.059700
     60 HAS2         8.1270     2.0320    -5.3320 h1         1 D88       0.059700
     61 HAU         -0.6770     0.8690     4.6400 hn         1 D88       0.458800
     62 CAG          1.1790     0.0020     7.2610 cg         1 D88       0.243800
     63 NAU         -0.1990     0.0010     4.7770 nu         1 D88      -0.702000
     64 OAW          4.1740    -0.0060     0.1280 os         1 D88      -0.335900
     65 O02         -4.3240    -2.4340     4.8070 os         1 D88      -0.308900
@<TRIPOS>BOND
     1     1    19 1
     2    65    20 1
     3    65    32 1
     4     2    11 1
     5     2    30 1
     6     3    62 3
     7     4    21 1
     8     5     7 1
     9    62    23 1
    10     6    18 ar
    11     6    23 ar
    12     7    21 ar
    13     7    22 ar
    14     8    20 ar
    15     8    24 ar
    16     9    26 ar
    17     9    28 ar
    18    10    25 ar
    19    10    29 ar
    20    11    12 1
    21    12    64 1
    22    13    31 1
    23    14    16 1
    24    14    30 1
    25    15    17 1
    26    15    30 1
    27    16    31 1
    28    17    31 1
    29    18    28 ar
    30    63    24 1
    31    63    27 1
    32    19    25 1
    33    64    26 1
    34    20    21 ar
    35    22    24 ar
    36    23    27 ar
    37    25    26 ar
    38    27    29 ar
    39    28    29 ar
    40     1    33 1
    41     1    34 1
    42     1    35 1
    43    32    36 1
    44    32    37 1
    45    32    38 1
    46     2    39 1
    47     2    40 1
    48    11    41 1
    49    11    42 1
    50     6    43 1
    51    22    44 1
    52     8    45 1
    53     9    46 1
    54    10    47 1
    55    12    48 1
    56    12    49 1
    57    13    50 1
    58    13    51 1
    59    13    52 1
    60    14    53 1
    61    14    54 1
    62    16    55 1
    63    16    56 1
    64    15    57 1
    65    15    58 1
    66    17    59 1
    67    17    60 1
    68    63    61 1
@<TRIPOS>SUBSTRUCTURE
     1 D88         1 TEMP              0 ****  ****    0 ROOT
