@<TRIPOS>MOLECULE
molecule
   30    31     1     0     0
SMALL
bcc


@<TRIPOS>ATOM
      1 C1           0.0000     0.0000     0.0000 ca         1 D8B      -0.259300
      2 N1           2.0720     0.0000     1.1460 nb         1 D8B      -0.680000
      3 C11          5.8000     0.0430    -4.6800 ca         1 D8B      -0.113000
      4 C12          5.1230    -0.5840    -5.7250 ca         1 D8B      -0.126000
      5 C13          3.9130    -1.0460    -5.9290 ca         1 D8B       0.075100
      6 C14          3.3460    -0.7550    -4.7410 ca         1 D8B      -0.147000
      7 C15          3.3100    -2.7390    -6.9700 c3         1 D8B       0.125700
      8 C2           1.3970     0.0000     0.0000 ca         1 D8B       0.538300
      9 C3           1.4540    -0.0010     2.3090 ca         1 D8B       0.473600
     10 C4           0.0720     0.0050     2.3810 ca         1 D8B      -0.237300
     11 C5          -0.6710     0.0060     1.2090 ca         1 D8B      -0.081000
     12 C6           2.2630    -0.0020     3.5800 c3         1 D8B      -0.151400
     13 C7           2.1090     0.0000    -1.2430 cg         1 D8B      -0.209000
     14 C8           2.6930     0.0210    -2.2610 ch         1 D8B      -0.064000
     15 C9           3.7320    -0.1530    -3.5270 ca         1 D8B       0.074000
     16 C10          4.9820     0.1910    -3.6540 ca         1 D8B      -0.117000
     17 H1          -0.2750    -0.2200    -1.0240 ha         1 D8B       0.153000
     18 H2           6.8430     0.3220    -4.5920 ha         1 D8B       0.167000
     19 H3           5.8010    -0.7200    -6.5590 ha         1 D8B       0.096000
     20 H4           2.3210    -1.0790    -4.6040 ha         1 D8B       0.105000
     21 H5           2.5840    -3.2600    -6.3580 h1         1 D8B       0.015367
     22 H6           2.9950    -2.9230    -7.9900 h1         1 D8B       0.015367
     23 H7           4.1340    -3.4020    -6.7320 h1         1 D8B       0.015367
     24 H8          -0.4740     0.2020     3.2960 ha         1 D8B       0.142000
     25 H9          -1.7260     0.1440     1.0040 ha         1 D8B       0.147000
     26 H10          1.7330     0.3230     4.4670 hc         1 D8B       0.044700
     27 H11          3.2890     0.2740     3.7950 hc         1 D8B       0.044700
     28 H12          2.2630    -1.0360     3.9010 hc         1 D8B       0.044700
     29 H13          5.4440     0.8520    -2.9310 ha         1 D8B       0.112000
     30 O1           3.2140    -1.5200    -7.0990 os         1 D8B      -0.204900
@<TRIPOS>BOND
     1    12     9 1
     2     9    10 ar
     3     9     2 ar
     4    10    11 ar
     5     2     8 ar
     6    11     1 ar
     7     8     1 ar
     8     8    13 1
     9    13    14 3
    10    14    15 1
    11     7    30 1
    12    15     6 ar
    13    15    16 ar
    14     6     5 ar
    15    16     3 ar
    16     5    30 1
    17     5     4 ar
    18     3     4 ar
    19     1    17 1
    20     3    18 1
    21     4    19 1
    22     6    20 1
    23     7    21 1
    24     7    22 1
    25     7    23 1
    26    10    24 1
    27    11    25 1
    28    12    26 1
    29    12    27 1
    30    12    28 1
    31    16    29 1
@<TRIPOS>SUBSTRUCTURE
     1 D8B         1 TEMP              0 ****  ****    0 ROOT
