@<TRIPOS>MOLECULE
D8G
   37    40     1     0     0
SMALL
bcc


@<TRIPOS>ATOM
      1 OAC          0.0000     0.0000     0.0000 o          1 D8G      -0.720500
      2 CAQ          1.2200     0.0000     0.0000 c          1 D8G       0.639100
      3 CAU          1.9350     0.0000     1.2170 cc         1 D8G      -0.308900
      4 NAV          1.5500     0.0010     2.5360 na         1 D8G       0.511900
      5 CAB          0.1630     0.0000     3.0060 c3         1 D8G      -0.033400
      6 CAS          2.6740    -0.0000     3.3620 cc         1 D8G      -0.241300
      7 CAJ          2.9820    -0.0010     4.7290 cc         1 D8G      -0.102000
      8 CAN          4.2750    -0.0020     5.0280 cd         1 D8G       0.037600
      9 CAA          4.8350    -0.0030     6.4270 c3         1 D8G       0.104200
     10 SAM          5.2410    -0.0030     3.5610 ss         1 D8G      -0.243800
     11 CAT          3.7930    -0.0010     2.5610 cd         1 D8G       0.031900
     12 CAR          3.3320    -0.0010     1.1710 cd         1 D8G      -0.187900
     13 CAI          3.9920    -0.0020    -0.0780 cd         1 D8G       0.492800
     14 NAL          3.2990    -0.0020    -1.1820 nc         1 D8G      -0.545300
     15 NAW          1.9020    -0.0060    -1.1640 n          1 D8G       0.158200
     16 CAK          1.1640    -0.0070    -2.4300 c3         1 D8G       0.122300
     17 CAP          0.9070     1.4150    -2.8610 ca         1 D8G      -0.163300
     18 CAH         -0.3250     1.9950    -2.6310 ca         1 D8G      -0.049000
     19 CAF         -0.5620     3.2980    -3.0270 ca         1 D8G      -0.122000
     20 CAE          0.4340     4.0230    -3.6540 ca         1 D8G      -0.067000
     21 CAG          1.6680     3.4450    -3.8860 ca         1 D8G      -0.141000
     22 CAO          1.9080     2.1420    -3.4840 ca         1 D8G       0.129900
     23 FAD          3.1150     1.5770    -3.7050 f          1 D8G      -0.121900
     24 HAB         -0.3360     0.8980     2.6590 h1         1 D8G       0.033033
     25 HABA         0.1480    -0.0260     4.0880 h1         1 D8G       0.033033
     26 HABB        -0.3500    -0.8710     2.6160 h1         1 D8G       0.033033
     27 HAJ          2.2140    -0.0000     5.4930 ha         1 D8G       0.120000
     28 HAA          4.4950    -0.8880     6.9510 hc         1 D8G       0.012700
     29 HAAA         4.4950     0.8810     6.9520 hc         1 D8G       0.012700
     30 HAAB         5.9170    -0.0030     6.3820 hc         1 D8G       0.012700
     31 HAI          5.0740     0.0010    -0.1190 h4         1 D8G       0.005800
     32 HAK          0.2200    -0.5210    -2.2980 h1         1 D8G       0.048700
     33 HAKA         1.7490    -0.5140    -3.1880 h1         1 D8G       0.048700
     34 HAH         -1.1070     1.4290    -2.1390 ha         1 D8G       0.125000
     35 HAF         -1.5290     3.7520    -2.8450 ha         1 D8G       0.108000
     36 HAE          0.2470     5.0430    -3.9660 ha         1 D8G       0.105000
     37 HAG          2.4490     4.0130    -4.3760 ha         1 D8G       0.119000
@<TRIPOS>BOND
     1     1     2 2   
     2     2     3 1   
     3     2    15 1   
     4     3     4 1   
     5     3    12 2   
     6     4     5 1   
     7     4     6 1   
     8     5    24 1   
     9     5    25 1   
    10     5    26 1   
    11     6     7 1   
    12     6    11 2   
    13     7     8 2   
    14     7    27 1   
    15     8     9 1   
    16     8    10 1   
    17     9    28 1   
    18     9    29 1   
    19     9    30 1   
    20    10    11 1   
    21    11    12 1   
    22    12    13 1   
    23    13    14 2   
    24    13    31 1   
    25    14    15 1   
    26    15    16 1   
    27    16    17 1   
    28    16    32 1   
    29    16    33 1   
    30    17    18 ar  
    31    17    22 ar  
    32    18    19 ar  
    33    18    34 1   
    34    19    20 ar  
    35    19    35 1   
    36    20    21 ar  
    37    20    36 1   
    38    21    22 ar  
    39    21    37 1   
    40    22    23 1   
@<TRIPOS>SUBSTRUCTURE
     1 D8G         1 TEMP              0 ****  ****    0 ROOT
