@<TRIPOS>MOLECULE
D8H
   46    47     1     0     0
SMALL
bcc


@<TRIPOS>ATOM
      1 N02          0.0000     0.0000     0.0000 nv         1 D8H      -0.602500
      2 C02          1.3900     0.0000     0.0000 ca         1 D8H       0.504200
      3 C03          2.0800     0.0000     1.2080 ca         1 D8H      -0.264300
      4 C04          3.4630     0.0010     1.1920 ca         1 D8H      -0.032300
      5 C07          4.2480     0.0010     2.4790 c3         1 D8H       0.061200
      6 C05          4.1120     0.0000    -0.0350 ca         1 D8H      -0.250300
      7 N01          2.0460    -0.0060    -1.1510 nb         1 D8H      -0.618000
      8 C06          3.3650    -0.0000    -1.1950 ca         1 D8H       0.402600
      9 C08          4.0640    -0.0000    -2.5300 c3         1 D8H      -0.066700
     10 C09          3.5680    -1.1820    -3.3660 c3         1 D8H       0.033900
     11 C13          4.2660    -1.1820    -4.7010 ca         1 D8H      -0.154600
     12 C12          5.4560    -1.8660    -4.8680 ca         1 D8H       0.334200
     13 C14          3.7200    -0.5020    -5.7770 ca         1 D8H      -0.156000
     14 C15          4.4020    -0.5300    -6.9910 ca         1 D8H      -0.047700
     15 C16          5.5960    -1.2350    -7.0790 ca         1 D8H       0.303200
     16 N11          6.0760    -1.8740    -6.0310 nb         1 D8H      -0.536000
     17 N17          3.8920     0.1400    -8.1070 nu         1 D8H      -0.422600
     18 C18          4.6170     0.1030    -9.3790 c3         1 D8H       0.167800
     19 C19          3.8500     0.9100   -10.4280 c3         1 D8H      -0.046400
     20 C20          4.6070     0.8710   -11.7570 c3         1 D8H       0.217400
     21 O21          3.8900     1.6260   -12.7350 os         1 D8H      -0.418600
     22 C22          4.5150     1.6540   -14.0200 c3         1 D8H       0.256700
     23 H021        -0.5000     0.7040    -0.5050 hn         1 D8H       0.272300
     24 H022        -0.5000    -0.7030     0.5070 hn         1 D8H       0.272300
     25 H03          1.5480    -0.1790     2.1350 ha         1 D8H       0.118000
     26 H071         4.4470    -1.0210     2.7800 hc         1 D8H       0.010700
     27 H072         3.6750     0.4990     3.2520 hc         1 D8H       0.010700
     28 H073         5.1850     0.5230     2.3300 hc         1 D8H       0.010700
     29 H05          5.1950     0.0030    -0.0810 ha         1 D8H       0.120000
     30 H081         5.1330    -0.0890    -2.3780 hc         1 D8H       0.024700
     31 H082         3.8490     0.9250    -3.0500 hc         1 D8H       0.024700
     32 H091         3.7830    -2.1080    -2.8470 hc         1 D8H       0.028700
     33 H092         2.4990    -1.0930    -3.5180 hc         1 D8H       0.028700
     34 H12          5.8840    -2.4040    -4.0310 h4         1 D8H      -0.017900
     35 H14          2.7870     0.0390    -5.6760 ha         1 D8H       0.119000
     36 H16          6.1340    -1.2640    -8.0190 h4         1 D8H      -0.012900
     37 H17          3.0290     0.6410    -8.0370 hn         1 D8H       0.295800
     38 H181         5.6030     0.5310    -9.2450 h1         1 D8H       0.015700
     39 H182         4.7110    -0.9230    -9.7120 h1         1 D8H       0.015700
     40 H191         2.8630     0.4820   -10.5620 hc         1 D8H       0.027700
     41 H192         3.7560     1.9370   -10.0950 hc         1 D8H       0.027700
     42 H201         4.7010    -0.1550   -12.0890 h1         1 D8H      -0.008300
     43 H202         5.5930     1.2990   -11.6230 h1         1 D8H      -0.008300
     44 H221         3.9150     2.2450   -14.7010 h1         1 D8H      -0.012633
     45 H222         4.6040     0.6440   -14.4000 h1         1 D8H      -0.012633
     46 H223         5.5010     2.0950   -13.9320 h1         1 D8H      -0.012633
@<TRIPOS>BOND
     1     1     2 1   
     2     1    23 1   
     3     1    24 1   
     4     2     3 ar  
     5     2     7 ar  
     6     3     4 ar  
     7     3    25 1   
     8     4     5 1   
     9     4     6 ar  
    10     5    26 1   
    11     5    27 1   
    12     5    28 1   
    13     6     8 ar  
    14     6    29 1   
    15     7     8 ar  
    16     8     9 1   
    17     9    10 1   
    18     9    30 1   
    19     9    31 1   
    20    10    11 1   
    21    10    32 1   
    22    10    33 1   
    23    11    12 ar  
    24    11    13 ar  
    25    12    16 ar  
    26    12    34 1   
    27    13    14 ar  
    28    13    35 1   
    29    14    15 ar  
    30    14    17 1   
    31    15    16 ar  
    32    15    36 1   
    33    17    18 1   
    34    17    37 1   
    35    18    19 1   
    36    18    38 1   
    37    18    39 1   
    38    19    20 1   
    39    19    40 1   
    40    19    41 1   
    41    20    21 1   
    42    20    42 1   
    43    20    43 1   
    44    21    22 1   
    45    22    44 1   
    46    22    45 1   
    47    22    46 1   
@<TRIPOS>SUBSTRUCTURE
     1 D8H         1 TEMP              0 ****  ****    0 ROOT
