@<TRIPOS>MOLECULE
D8I
   30    30     1     0     0
SMALL
bcc


@<TRIPOS>ATOM
      1 CAA          0.0000     0.0000     0.0000 c3         1 D8I       0.245700
      2 OAM          1.4290     0.0000     0.0000 os         1 D8I      -0.309900
      3 CAO          2.0460     0.0000     1.2100 ca         1 D8I       0.142100
      4 CAH          3.4320     0.0010     1.2840 ca         1 D8I      -0.137000
      5 CAG          1.2920     0.0060     2.3750 ca         1 D8I      -0.222000
      6 CAE          1.9230     0.0060     3.6040 ca         1 D8I      -0.066000
      7 CAF          3.3030     0.0010     3.6740 ca         1 D8I      -0.120000
      8 CAN          4.0570     0.0000     2.5150 ca         1 D8I      -0.039300
      9 CAJ          5.5620     0.0010     2.5960 c3         1 D8I       0.196100
     10 NAL          6.0510     1.3860     2.6220 n7         1 D8I      -0.595200
     11 CAI          7.5170     1.4250     2.7000 c3         1 D8I       0.173800
     12 CAK          7.9870     2.8810     2.7250 c3         1 D8I      -0.055600
     13 SAP          9.7970     2.9300     2.8220 s6         1 D8I       0.955800
     14 OAD         10.2430     2.4530     4.0850 o          1 D8I      -0.659867
     15 OAC         10.3750     2.4530     1.6140 o          1 D8I      -0.659867
     16 OAB         10.1380     4.4130     2.8400 o          1 D8I      -0.659867
     17 H1          -0.3610     0.8860     0.5080 h1         1 D8I      -0.006967
     18 H2          -0.3610    -0.8830     0.5140 h1         1 D8I      -0.006967
     19 H3          -0.3610    -0.0030    -1.0210 h1         1 D8I      -0.006967
     20 H4           4.0230     0.0010     0.3760 ha         1 D8I       0.118000
     21 H5           0.2100     0.0100     2.3210 ha         1 D8I       0.112000
     22 H6           1.3350     0.0080     4.5140 ha         1 D8I       0.094000
     23 H7           3.7950     0.0010     4.6390 ha         1 D8I       0.114000
     24 H8           5.8750    -0.5100     3.4990 h1         1 D8I       0.007700
     25 H9           5.9700    -0.5100     1.7330 h1         1 D8I       0.007700
     26 H10          5.7480     1.8620     1.7960 hn         1 D8I       0.252800
     27 H12          7.8440     0.9250     3.6040 h1         1 D8I       0.010200
     28 H13          7.9380     0.9240     1.8370 h1         1 D8I       0.010200
     29 H14          7.6600     3.3820     1.8220 h1         1 D8I       0.052200
     30 H15          7.5660     3.3820     3.5890 h1         1 D8I       0.052200
@<TRIPOS>BOND
     1     1     2 1   
     2     1    17 1   
     3     1    18 1   
     4     1    19 1   
     5     2     3 1   
     6     3     4 ar  
     7     3     5 ar  
     8     4     8 ar  
     9     4    20 1   
    10     5     6 ar  
    11     5    21 1   
    12     6     7 ar  
    13     6    22 1   
    14     7     8 ar  
    15     7    23 1   
    16     8     9 1   
    17     9    10 1   
    18     9    24 1   
    19     9    25 1   
    20    10    11 1   
    21    10    26 1   
    22    11    12 1   
    23    11    27 1   
    24    11    28 1   
    25    12    13 1   
    26    12    29 1   
    27    12    30 1   
    28    13    14 1   
    29    13    15 1   
    30    13    16 1   
@<TRIPOS>SUBSTRUCTURE
     1 D8I         1 TEMP              0 ****  ****    0 ROOT
