@<TRIPOS>MOLECULE
molecule
   30    30     1     0     0
SMALL
bcc


@<TRIPOS>ATOM
      1 CAA          0.0000     0.0000     0.0000 c3         1 D8I       0.131700
      2 OAM          1.4290     0.0000     0.0000 os         1 D8I      -0.331900
      3 CAO          2.0460     0.0000     1.2100 ca         1 D8I       0.132100
      4 CAH          3.4320     0.0010     1.2840 ca         1 D8I      -0.155000
      5 CAG          1.2920     0.0060     2.3750 ca         1 D8I      -0.230000
      6 CAE          1.9230     0.0060     3.6040 ca         1 D8I      -0.098000
      7 CAF          3.3030     0.0010     3.6740 ca         1 D8I      -0.142000
      8 CAN          4.0570     0.0000     2.5150 ca         1 D8I      -0.035300
      9 CAJ          5.5620     0.0010     2.5960 c3         1 D8I       0.197100
     10 NAL          6.0510     1.3860     2.6220 n7         1 D8I      -0.812200
     11 CAI          7.5170     1.4250     2.7000 c3         1 D8I       0.179800
     12 CAK          7.9870     2.8810     2.7250 c3         1 D8I      -0.255600
     13 SAP          9.7970     2.9300     2.8220 s6         1 D8I       1.252800
     14 OAD         10.2430     2.4530     4.0850 o          1 D8I      -0.707200
     15 OAC         10.3750     2.4530     1.6140 o          1 D8I      -0.707200
     16 OAB         10.1380     4.4130     2.8400 o          1 D8I      -0.707200
     17 H1          -0.3610     0.8860     0.5080 h1         1 D8I       0.036367
     18 H2          -0.3610    -0.8830     0.5140 h1         1 D8I       0.036367
     19 H3          -0.3610    -0.0030    -1.0210 h1         1 D8I       0.036367
     20 H4           4.0230     0.0010     0.3760 ha         1 D8I       0.143000
     21 H5           0.2100     0.0100     2.3210 ha         1 D8I       0.124000
     22 H6           1.3350     0.0080     4.5140 ha         1 D8I       0.123000
     23 H7           3.7950     0.0010     4.6390 ha         1 D8I       0.139000
     24 H8           5.8750    -0.5100     3.4990 h1         1 D8I       0.036200
     25 H9           5.9700    -0.5100     1.7330 h1         1 D8I       0.036200
     26 H10          5.7480     1.8620     1.7960 hn         1 D8I       0.352800
     27 H12          7.8440     0.9250     3.6040 h1         1 D8I       0.033700
     28 H13          7.9380     0.9240     1.8370 h1         1 D8I       0.033700
     29 H14          7.6600     3.3820     1.8220 h1         1 D8I       0.079700
     30 H15          7.5660     3.3820     3.5890 h1         1 D8I       0.079700
@<TRIPOS>BOND
     1     2     1 1
     2     2     3 1
     3     5     3 ar
     4     5     6 ar
     5     3     4 ar
     6     6     7 ar
     7     4     8 ar
     8     7     8 ar
     9     8     9 1
    10     9    10 1
    11    10    11 1
    12    11    12 1
    13    12    13 1
    14    14    13 1
    15    13    15 1
    16    13    16 1
    17     1    17 1
    18     1    18 1
    19     1    19 1
    20     4    20 1
    21     5    21 1
    22     6    22 1
    23     7    23 1
    24     9    24 1
    25     9    25 1
    26    10    26 1
    27    11    27 1
    28    11    28 1
    29    12    29 1
    30    12    30 1
@<TRIPOS>SUBSTRUCTURE
     1 D8I         1 TEMP              0 ****  ****    0 ROOT
