@<TRIPOS>MOLECULE
D8N
   27    28     1     0     0
SMALL
bcc


@<TRIPOS>ATOM
      1 C01          0.0000     0.0000     0.0000 c3         1 D8N      -0.141700
      2 C02          1.5480     0.0000     0.0000 c3         1 D8N       0.208400
      3 C05         -0.3280     0.6010     1.3540 c2         1 D8N       0.334200
      4 C06          2.0880    -1.2420    -0.6620 ca         1 D8N      -0.126300
      5 C07          2.5290    -1.1890    -1.9710 ca         1 D8N      -0.062000
      6 C08          3.0240    -2.3250    -2.5810 ca         1 D8N      -0.119500
      7 C09          3.0790    -3.5210    -1.8780 ca         1 D8N      -0.080400
      8 C10          2.6350    -3.5710    -0.5620 ca         1 D8N      -0.119500
      9 C11          2.1460    -2.4300     0.0430 ca         1 D8N      -0.062000
     10 C13          4.5680    -4.5770    -3.4040 c          1 D8N       0.558100
     11 C15          5.0250    -5.8020    -4.1530 c3         1 D8N      -0.069100
     12 N04          0.7260     0.5720     2.0750 n2         1 D8N      -0.335200
     13 N12          3.5790    -4.6750    -2.4920 ns         1 D8N      -0.042100
     14 O03          1.8370     0.0000     1.4130 os         1 D8N      -0.162300
     15 O14          5.0880    -3.5030    -3.6210 o          1 D8N      -0.629100
     16 H012        -0.3830     0.6240    -0.7990 hc         1 D8N       0.040700
     17 H011        -0.3830    -1.0110    -0.0730 hc         1 D8N       0.040700
     18 H021         1.9320     0.8970    -0.4710 h1         1 D8N       0.033700
     19 H071         2.4860    -0.2560    -2.5200 ha         1 D8N       0.112500
     20 H081         3.3690    -2.2830    -3.6070 ha         1 D8N       0.124000
     21 H101         2.6780    -4.5020    -0.0100 ha         1 D8N       0.124000
     22 H111         1.7990    -2.4680     1.0690 ha         1 D8N       0.112500
     23 H152         4.1660    -6.3030    -4.5830 hc         1 D8N       0.024367
     24 H151         5.5310    -6.4740    -3.4700 hc         1 D8N       0.024367
     25 H153         5.7060    -5.5090    -4.9430 hc         1 D8N       0.024367
     26 H121         3.1750    -5.5670    -2.2870 hn         1 D8N       0.168500
     27 H1          -1.0090     1.4410     1.4240 h4         1 D8N       0.018800
@<TRIPOS>BOND
     1     1     2 1   
     2     1     3 1   
     3     1    16 1   
     4     1    17 1   
     5     2     4 1   
     6     2    14 1   
     7     2    18 1   
     8     3    12 2   
     9     3    27 1   
    10     4     5 ar  
    11     4     9 ar  
    12     5     6 ar  
    13     5    19 1   
    14     6     7 ar  
    15     6    20 1   
    16     7     8 ar  
    17     7    13 1   
    18     8     9 ar  
    19     8    21 1   
    20     9    22 1   
    21    10    11 1   
    22    10    13 1   
    23    10    15 2   
    24    11    23 1   
    25    11    24 1   
    26    11    25 1   
    27    12    14 1   
    28    13    26 1   
@<TRIPOS>SUBSTRUCTURE
     1 D8N         1 TEMP              0 ****  ****    0 ROOT
