@<TRIPOS>MOLECULE
molecule
   27    28     1     0     0
SMALL
bcc


@<TRIPOS>ATOM
      1 C01          0.0000     0.0000     0.0000 c3         1 D8N      -0.200700
      2 C02          1.5480     0.0000     0.0000 c3         1 D8N       0.150400
      3 C05         -0.3280     0.6010     1.3540 c2         1 D8N       0.318200
      4 C06          2.0880    -1.2420    -0.6620 ca         1 D8N      -0.112300
      5 C07          2.5290    -1.1890    -1.9710 ca         1 D8N      -0.091500
      6 C08          3.0240    -2.3250    -2.5810 ca         1 D8N      -0.146500
      7 C09          3.0790    -3.5210    -1.8780 ca         1 D8N       0.063600
      8 C10          2.6350    -3.5710    -0.5620 ca         1 D8N      -0.146500
      9 C11          2.1460    -2.4300     0.0430 ca         1 D8N      -0.091500
     10 C13          4.5680    -4.5770    -3.4040 c          1 D8N       0.656100
     11 C15          5.0250    -5.8020    -4.1530 c3         1 D8N      -0.172100
     12 N04          0.7260     0.5720     2.0750 n2         1 D8N      -0.364200
     13 N12          3.5790    -4.6750    -2.4920 ns         1 D8N      -0.483100
     14 O03          1.8370     0.0000     1.4130 os         1 D8N      -0.163300
     15 O14          5.0880    -3.5030    -3.6210 o          1 D8N      -0.590100
     16 H012        -0.3830     0.6240    -0.7990 hc         1 D8N       0.073200
     17 H011        -0.3830    -1.0110    -0.0730 hc         1 D8N       0.073200
     18 H021         1.9320     0.8970    -0.4710 h1         1 D8N       0.068700
     19 H071         2.4860    -0.2560    -2.5200 ha         1 D8N       0.141000
     20 H081         3.3690    -2.2830    -3.6070 ha         1 D8N       0.147500
     21 H101         2.6780    -4.5020    -0.0100 ha         1 D8N       0.147500
     22 H111         1.7990    -2.4680     1.0690 ha         1 D8N       0.141000
     23 H152         4.1660    -6.3030    -4.5830 hc         1 D8N       0.064033
     24 H151         5.5310    -6.4740    -3.4700 hc         1 D8N       0.064033
     25 H153         5.7060    -5.5090    -4.9430 hc         1 D8N       0.064033
     26 H121         3.1750    -5.5670    -2.2870 hn         1 D8N       0.324500
     27 H1          -1.0090     1.4410     1.4240 h4         1 D8N       0.064800
@<TRIPOS>BOND
     1     1     3 1
     2     1     2 1
     3     3    12 2
     4     9     8 ar
     5     9     4 ar
     6     2     4 1
     7     2    14 1
     8     8     7 ar
     9     4     5 ar
    10    12    14 1
    11     7    13 1
    12     7     6 ar
    13     5     6 ar
    14    13    10 1
    15    10    15 2
    16    10    11 1
    17     1    16 1
    18     1    17 1
    19     2    18 1
    20     5    19 1
    21     6    20 1
    22     8    21 1
    23     9    22 1
    24    11    23 1
    25    11    24 1
    26    11    25 1
    27    13    26 1
    28     3    27 1
@<TRIPOS>SUBSTRUCTURE
     1 D8N         1 TEMP              0 ****  ****    0 ROOT
