@<TRIPOS>MOLECULE
molecule
   28    28     1     0     0
SMALL
bcc


@<TRIPOS>ATOM
      1 C01          0.0000     0.0000     0.0000 c3         1 D8Q       0.073300
      2 C03          2.4290     0.0000     0.0000 cc         1 D8Q       0.107600
      3 C04          3.6490     0.0000     0.6450 cd         1 D8Q      -0.304200
      4 C05          3.6900    -0.0050     2.0600 cd         1 D8Q      -0.051000
      5 C06          2.5190    -0.0090     2.7530 cc         1 D8Q      -0.242200
      6 C07          1.2990    -0.0090     2.0530 c          1 D8Q       0.678700
      7 C09          4.9010     0.0050    -0.1350 c          1 D8Q       0.709300
      8 C12          7.3330     0.0100    -0.2730 c3         1 D8Q       0.100000
      9 C13          8.5290     0.0090     0.6820 c3         1 D8Q       0.070800
     10 N02          1.2840     0.0010     0.7060 n          1 D8Q      -0.303000
     11 N11          6.0900     0.0050     0.5010 ns         1 D8Q      -0.596900
     12 N14          9.7760     0.0140    -0.0940 nz         1 D8Q      -0.806600
     13 O08          0.2470    -0.0140     2.6690 o          1 D8Q      -0.607500
     14 O10          4.8610     0.0080    -1.3500 o          1 D8Q      -0.605100
     15 H1           0.1740     0.0840    -1.0660 h1         1 D8Q       0.069700
     16 H2          -0.5970     0.8390     0.3350 h1         1 D8Q       0.069700
     17 H3          -0.5260    -0.9240     0.2090 h1         1 D8Q       0.069700
     18 H4           2.3930     0.0030    -1.0830 h4         1 D8Q       0.186000
     19 H5           4.6390    -0.0040     2.5830 ha         1 D8Q       0.117000
     20 H6           2.5260    -0.0150     3.8360 ha         1 D8Q       0.175000
     21 H7           7.3720    -0.8730    -0.9000 h1         1 D8Q       0.071700
     22 H8           7.3680     0.8960    -0.8940 h1         1 D8Q       0.071700
     23 H9           8.4940    -0.8780     1.3040 hx         1 D8Q       0.115700
     24 H10          8.4910     0.8910     1.3090 hx         1 D8Q       0.115700
     25 H11          6.1230     0.0010     1.5010 hn         1 D8Q       0.327500
     26 H12          9.8120    -0.8020    -0.6730 hn         1 D8Q       0.461800
     27 H13         10.5580     0.0130     0.5310 hn         1 D8Q       0.461800
     28 H143         9.8090     0.8330    -0.6680 hn         1 D8Q       0.461800
@<TRIPOS>BOND
     1     5     4 2
     2     5     6 1
     3    13     6 2
     4     4     3 1
     5     6    10 1
     6     3     7 1
     7     3     2 2
     8    10     2 1
     9    10     1 1
    10    14     7 2
    11    12     9 1
    12     9     8 1
    13     7    11 1
    14    11     8 1
    15     1    15 1
    16     1    16 1
    17     1    17 1
    18     2    18 1
    19     4    19 1
    20     5    20 1
    21     8    21 1
    22     8    22 1
    23     9    23 1
    24     9    24 1
    25    11    25 1
    26    12    26 1
    27    12    27 1
    28    28    12 1
@<TRIPOS>SUBSTRUCTURE
     1 D8Q         1 TEMP              0 ****  ****    0 ROOT
