@<TRIPOS>MOLECULE
D8Q
   28    28     1     0     0
SMALL
bcc


@<TRIPOS>ATOM
      1 C01          0.0000     0.0000     0.0000 c3         1 D8Q       0.039300
      2 C03          2.4290     0.0000     0.0000 cc         1 D8Q      -0.030400
      3 C04          3.6490     0.0000     0.6450 cd         1 D8Q      -0.317200
      4 C05          3.6900    -0.0050     2.0600 cd         1 D8Q      -0.024000
      5 C06          2.5190    -0.0090     2.7530 cc         1 D8Q      -0.219200
      6 C07          1.2990    -0.0090     2.0530 c          1 D8Q       0.578700
      7 C09          4.9010     0.0050    -0.1350 c          1 D8Q       0.643300
      8 C12          7.3330     0.0100    -0.2730 c3         1 D8Q       0.060000
      9 C13          8.5290     0.0090     0.6820 c3         1 D8Q      -0.069200
     10 N02          1.2840     0.0010     0.7060 n          1 D8Q       0.144000
     11 N11          6.0900     0.0050     0.5010 ns         1 D8Q      -0.226900
     12 N14          9.7760     0.0140    -0.0940 nz         1 D8Q       0.098400
     13 O08          0.2470    -0.0140     2.6690 o          1 D8Q      -0.653500
     14 O10          4.8610     0.0080    -1.3500 o          1 D8Q      -0.643100
     15 H1           0.1740     0.0840    -1.0660 h1         1 D8Q       0.036033
     16 H2          -0.5970     0.8390     0.3350 h1         1 D8Q       0.036033
     17 H3          -0.5260    -0.9240     0.2090 h1         1 D8Q       0.036033
     18 H4           2.3930     0.0030    -1.0830 h4         1 D8Q       0.153000
     19 H5           4.6390    -0.0040     2.5830 ha         1 D8Q       0.091000
     20 H6           2.5260    -0.0150     3.8360 ha         1 D8Q       0.144000
     21 H7           7.3720    -0.8730    -0.9000 h1         1 D8Q       0.038700
     22 H8           7.3680     0.8960    -0.8940 h1         1 D8Q       0.038700
     23 H9           8.4940    -0.8780     1.3040 hx         1 D8Q       0.086700
     24 H10          8.4910     0.8910     1.3090 hx         1 D8Q       0.086700
     25 H11          6.1230     0.0010     1.5010 hn         1 D8Q       0.194500
     26 H12          9.8120    -0.8020    -0.6730 hn         1 D8Q       0.225800
     27 H13         10.5580     0.0130     0.5310 hn         1 D8Q       0.225800
     28 H143         9.8090     0.8330    -0.6680 hn         1 D8Q       0.225800
@<TRIPOS>BOND
     1     1    10 1   
     2     1    15 1   
     3     1    16 1   
     4     1    17 1   
     5     2     3 2   
     6     2    10 1   
     7     2    18 1   
     8     3     4 1   
     9     3     7 1   
    10     4     5 2   
    11     4    19 1   
    12     5     6 1   
    13     5    20 1   
    14     6    10 1   
    15     6    13 2   
    16     7    11 1   
    17     7    14 2   
    18     8     9 1   
    19     8    11 1   
    20     8    21 1   
    21     8    22 1   
    22     9    12 1   
    23     9    23 1   
    24     9    24 1   
    25    11    25 1   
    26    12    26 1   
    27    12    27 1   
    28    12    28 1   
@<TRIPOS>SUBSTRUCTURE
     1 D8Q         1 TEMP              0 ****  ****    0 ROOT
