@<TRIPOS>MOLECULE
molecule
   23    25     1     0     0
SMALL
bcc


@<TRIPOS>ATOM
      1 C01          0.0000     0.0000     0.0000 ca         1 D8S      -0.155000
      2 C02          1.3470     0.0000     0.0000 ca         1 D8S      -0.078000
      3 C03          2.0930     0.0000     1.2150 ca         1 D8S      -0.070800
      4 C04          3.4850    -0.0000     1.3800 cc         1 D8S      -0.165200
      5 C05          3.9200     0.0000     2.6480 cd         1 D8S      -0.010600
      6 C06          5.3310    -0.0000     3.0490 c          1 D8S       0.897800
      7 O07          5.6600     0.0000     4.3570 o          1 D8S      -0.820300
      8 O08          6.2030    -0.0000     2.2020 o          1 D8S      -0.820300
      9 S09          2.5630     0.0000     3.7600 ss         1 D8S      -0.041500
     10 C10          1.4100     0.0000     2.4310 ca         1 D8S      -0.071100
     11 C11         -0.0100     0.0000     2.4380 ca         1 D8S       0.019000
     12 C12         -0.7200    -0.0000     3.6480 ca         1 D8S      -0.117000
     13 C13         -2.0840     0.0000     3.6280 ca         1 D8S      -0.141000
     14 C14         -2.7800     0.0000     2.4240 ca         1 D8S      -0.148000
     15 C15         -2.1190    -0.0010     1.2310 ca         1 D8S      -0.120000
     16 C16         -0.7170     0.0000     1.2150 ca         1 D8S      -0.037000
     17 H01         -0.5370    -0.0000    -0.9410 ha         1 D8S       0.116000
     18 H02          1.8760    -0.0000    -0.9450 ha         1 D8S       0.120000
     19 H04          4.1660    -0.0000     0.5370 ha         1 D8S       0.161000
     20 H12         -0.1890    -0.0000     4.5920 ha         1 D8S       0.137000
     21 H13         -2.6320     0.0010     4.5620 ha         1 D8S       0.115000
     22 H14         -3.8640     0.0000     2.4330 ha         1 D8S       0.111000
     23 H15         -2.6740    -0.0010     0.3010 ha         1 D8S       0.119000
@<TRIPOS>BOND
     1     1     2 ar
     2     1    16 ar
     3     2     3 ar
     4     3     4 1
     5     3    10 ar
     6     4     5 2
     7     5     6 1
     8     5     9 1
     9     6     7 1
    10     6     8 1
    11     9    10 1
    12    10    11 ar
    13    11    12 ar
    14    11    16 ar
    15    12    13 ar
    16    13    14 ar
    17    14    15 ar
    18    15    16 ar
    19     1    17 1
    20     2    18 1
    21     4    19 1
    22    12    20 1
    23    13    21 1
    24    14    22 1
    25    15    23 1
@<TRIPOS>SUBSTRUCTURE
     1 D8S         1 TEMP              0 ****  ****    0 ROOT
