@<TRIPOS>MOLECULE
molecule
   20    19     1     0     0
SMALL
bcc


@<TRIPOS>ATOM
      1 OAA          0.0000     0.0000     0.0000 o          1 D8T      -0.841300
      2 OAB          1.8530    -2.4150     1.2980 oh         1 D8T      -0.594800
      3 OAC          4.3010    -0.2560     2.9610 oh         1 D8T      -0.604800
      4 CAD          1.2080     0.0000     0.0000 c          1 D8T       0.870600
      5 CAE          1.9620     0.0000     1.3050 c3         1 D8T       0.032100
      6 CAF          2.7450    -1.3070     1.4410 c3         1 D8T       0.179100
      7 CAG          3.4090    -1.3630     2.8190 c3         1 D8T       0.137100
      8 CAH          4.1930    -2.6700     2.9540 c3         1 D8T       0.105400
      9 OAI          4.7170    -2.7760     4.2790 oh         1 D8T      -0.624800
     10 OAJ          1.8790     0.0020    -1.1620 o          1 D8T      -0.841300
     11 OAK          1.0370     0.1160     2.3890 oh         1 D8T      -0.608800
     12 HAE          2.6490     0.8370     1.3260 h1         1 D8T       0.034700
     13 HAF          3.5060    -1.3540     0.6710 h1         1 D8T       0.058700
     14 HAG          2.6490    -1.3160     3.5890 h1         1 D8T       0.067700
     15 HAH          5.0080    -2.6770     2.2420 h1         1 D8T       0.029200
     16 HAHA         3.5340    -3.5070     2.7590 h1         1 D8T       0.029200
     17 HOAI         5.1480    -3.6080     4.3810 ho         1 D8T       0.388000
     18 HOAK         0.7710     1.0160     2.4800 ho         1 D8T       0.387000
     19 HOAB         2.0550    -2.8800     0.5030 ho         1 D8T       0.400000
     20 HOAC         4.3610    -0.0160     3.8710 ho         1 D8T       0.399000
@<TRIPOS>BOND
     1     1     4 1
     2     6     2 1
     3     2    19 1
     4     3     7 1
     5     3    20 1
     6     5     4 1
     7     4    10 1
     8     6     5 1
     9     5    11 1
    10     5    12 1
    11     7     6 1
    12     6    13 1
    13     8     7 1
    14     7    14 1
    15     9     8 1
    16     8    15 1
    17     8    16 1
    18     9    17 1
    19    11    18 1
@<TRIPOS>SUBSTRUCTURE
     1 D8T         1 TEMP              0 ****  ****    0 ROOT
