@<TRIPOS>MOLECULE
D8T
   20    19     1     0     0
SMALL
bcc


@<TRIPOS>ATOM
      1 OAA        -0.1410   -0.6510    0.0020 o         1 D8T     -0.828800
      2 OAB         3.4280   -1.9550    0.7030 oh        1 D8T     -0.646800
      3 OAC         5.2390   -1.0020    2.7250 oh        1 D8T     -0.634800
      4 CAD         1.0910   -0.3840    0.0700 c         1 D8T      0.890600
      5 CAE         1.7130   -0.3550    1.4930 c3        1 D8T     -0.012900
      6 CAF         3.1870   -0.7720    1.4510 c3        1 D8T      0.131100
      7 CAG         3.8170   -0.9920    2.8330 c3        1 D8T      0.115100
      8 CAH         3.3700   -2.2940    3.5010 c3        1 D8T      0.104400
      9 OAI         4.0980   -2.5380    4.6930 oh        1 D8T     -0.626800
     10 OAJ         1.8480   -0.1680   -0.9160 o         1 D8T     -0.828800
     11 OAK         0.9730   -1.1560    2.3960 oh        1 D8T     -0.637800
     12 HAE         1.6660    0.7010    1.8840 h1        1 D8T      0.032700
     13 HAF         3.7400    0.0760    0.9460 h1        1 D8T      0.046700
     14 HAG         3.5880   -0.1140    3.4960 h1        1 D8T      0.072700
     15 HAH         3.5150   -3.1530    2.7930 h1        1 D8T      0.068200
     16 HAHA        2.2940   -2.2300    3.8090 h1        1 D8T      0.068200
     17 HOAI        5.0220   -2.3240    4.5090 ho        1 D8T      0.399000
     18 HOAK        0.1800   -1.4560    1.9210 ho        1 D8T      0.429000
     19 HOAB        2.9940   -1.8260   -0.1570 ho        1 D8T      0.447000
     20 HOAC        5.4540   -1.5870    1.9870 ho        1 D8T      0.410000
@<TRIPOS>BOND
     1    1    4 1   
     2    2    6 1   
     3    2   19 1   
     4    3    7 1   
     5    3   20 1   
     6    4    5 1   
     7    4   10 1   
     8    5    6 1   
     9    5   11 1   
    10    5   12 1   
    11    6    7 1   
    12    6   13 1   
    13    7    8 1   
    14    7   14 1   
    15    8    9 1   
    16    8   15 1   
    17    8   16 1   
    18    9   17 1   
    19   11   18 1   
@<TRIPOS>SUBSTRUCTURE
     1 D8T         1 TEMP              0 ****  ****    0 ROOT
