@<TRIPOS>MOLECULE
molecule
   28    29     1     0     0
SMALL
bcc


@<TRIPOS>ATOM
      1 C1           0.0000     0.0000     0.0000 ca         1 D8W      -0.022000
      2 C2           1.3820     0.0000     0.0000 ca         1 D8W      -0.149500
      3 C3           2.0730     0.0000     1.1970 ca         1 D8W      -0.057000
      4 C4           1.3810     0.0010     2.3950 ca         1 D8W      -0.149500
      5 C5          -0.0010     0.0030     2.3930 ca         1 D8W      -0.022000
      6 C6          -0.6920     0.0010     1.1970 ca         1 D8W      -0.325500
      7 S1          -2.4540     0.0020     1.1960 sy         1 D8W       1.389200
      8 O1          -2.8550     0.5480     2.4450 o          1 D8W      -0.583800
      9 O2          -2.8550     0.5460    -0.0540 o          1 D8W      -0.583800
     10 N1          -2.9450    -1.5800     1.1970 nu         1 D8W      -0.797800
     11 C7          -2.6660    -2.3920     2.2860 cc         1 D8W       0.752300
     12 S2          -3.1100    -4.0910     2.4590 ss         1 D8W      -0.085800
     13 N2          -2.0240    -2.0390     3.3630 nd         1 D8W      -0.375000
     14 N3          -1.8600    -2.9130     4.2580 nd         1 D8W      -0.221000
     15 C8          -2.3380    -4.0960     4.0460 cc         1 D8W       0.064300
     16 S3          -2.2290    -5.4710     5.1420 sy         1 D8W       1.228800
     17 O3          -3.5570    -5.7550     5.5610 o          1 D8W      -0.501300
     18 O4          -1.3940    -6.4280     4.5050 o          1 D8W      -0.501300
     19 N4          -1.4130    -4.9600     6.4890 nz         1 D8W      -0.804500
     20 H1          -0.5410    -0.0010    -0.9380 ha         1 D8W       0.157000
     21 H2           1.9240    -0.0010    -0.9380 ha         1 D8W       0.145500
     22 H3           3.1560    -0.0010     1.1980 ha         1 D8W       0.145000
     23 H4           1.9220     0.0020     3.3330 ha         1 D8W       0.145500
     24 H5          -0.5430     0.0040     3.3310 ha         1 D8W       0.157000
     25 HN1         -3.4720    -1.9400     0.4260 hn         1 D8W       0.492800
     26 HN4         -1.3330    -5.7170     7.1380 hn         1 D8W       0.501133
     27 HN4A        -1.9140    -4.2060     6.9170 hn         1 D8W       0.501133
     28 H43         -0.4990    -4.6470     6.2270 hn         1 D8W       0.501133
@<TRIPOS>BOND
     1     1     2 ar
     2     1     6 ar
     3     2     3 ar
     4     3     4 ar
     5     4     5 ar
     6     5     6 ar
     7     6     7 1
     8     7     8 2
     9     7     9 2
    10     7    10 1
    11    10    11 1
    12    11    12 1
    13    11    13 2
    14    12    15 1
    15    13    14 1
    16    14    15 2
    17    15    16 1
    18    16    17 2
    19    16    18 2
    20    16    19 1
    21     1    20 1
    22     2    21 1
    23     3    22 1
    24     4    23 1
    25     5    24 1
    26    10    25 1
    27    19    26 1
    28    19    27 1
    29    28    19 1
@<TRIPOS>SUBSTRUCTURE
     1 D8W         1 TEMP              0 ****  ****    0 ROOT
