@<TRIPOS>MOLECULE
D8X
   32    31     1     0     0
SMALL
bcc


@<TRIPOS>ATOM
      1 O3P         0.6280    2.6760   -0.8690 o         1 D8X     -0.909833
      2 P           0.7700    1.2120   -0.4710 p5        1 D8X      1.323900
      3 O1P         0.7500    0.9020    0.9900 o         1 D8X     -0.909833
      4 O2P         0.0990    0.2650   -1.4200 o         1 D8X     -0.909833
      5 O5          2.4400    1.0980   -0.9270 os        1 D8X     -0.566200
      6 C5          2.6600    1.1440   -2.2800 c3        1 D8X      0.190400
      7 C4          3.1390    2.5460   -2.7500 c3        1 D8X      0.092100
      8 O4          3.2010    3.4820   -1.7030 oh        1 D8X     -0.662800
      9 C3          2.2130    3.1010   -3.8730 c3        1 D8X      0.252600
     10 O3          2.1830    2.2140   -4.9850 oh        1 D8X     -0.673800
     11 O3'         0.8710    3.2400   -3.5260 oh        1 D8X     -0.673800
     12 C2          2.7610    4.4470   -4.3720 c         1 D8X      0.597100
     13 O2          3.5980    4.5450   -5.2770 o         1 D8X     -0.593100
     14 C1          2.2090    5.6240   -3.6220 c3        1 D8X     -0.197400
     15 C1'         2.7650    6.9660   -4.0620 c3        1 D8X     -0.057700
     16 C2'         1.8680    8.0870   -3.5780 c3        1 D8X     -0.085600
     17 C22         4.1780    7.1610   -3.5540 c3        1 D8X     -0.085600
     18 H3          3.4790    0.4140   -2.5460 h1        1 D8X      0.005700
     19 H4          1.7250    0.8540   -2.8410 h1        1 D8X      0.005700
     20 H5          4.1770    2.4830   -3.1740 h1        1 D8X      0.029700
     21 H6          2.4780    3.2500   -1.0690 ho        1 D8X      0.485000
     22 H7          1.4570    1.5970   -4.8190 ho        1 D8X      0.473000
     23 H8          0.7250    2.9450   -2.5710 ho        1 D8X      0.473000
     24 H9          1.0920    5.6010   -3.7450 hc        1 D8X      0.103700
     25 H10         2.4150    5.4380   -2.5280 hc        1 D8X      0.103700
     26 H11         2.7920    6.9850   -5.1890 hc        1 D8X      0.042700
     27 H12         2.2850    9.0790   -3.8780 hc        1 D8X      0.025033
     28 H13         0.8460    7.9840   -4.0140 hc        1 D8X      0.025033
     29 H14         1.7800    8.0600   -2.4650 hc        1 D8X      0.025033
     30 H15         4.1980    7.1550   -2.4370 hc        1 D8X      0.025033
     31 H16         4.5940    8.1330   -3.9120 hc        1 D8X      0.025033
     32 H17         4.8240    6.3290   -3.9260 hc        1 D8X      0.025033
@<TRIPOS>BOND
     1    1    2 1   
     2    2    3 1   
     3    2    4 1   
     4    2    5 1   
     5    5    6 1   
     6    6    7 1   
     7    6   18 1   
     8    6   19 1   
     9    7    8 1   
    10    7    9 1   
    11    7   20 1   
    12    8   21 1   
    13    9   10 1   
    14    9   11 1   
    15    9   12 1   
    16   10   22 1   
    17   11   23 1   
    18   12   13 2   
    19   12   14 1   
    20   14   15 1   
    21   14   24 1   
    22   14   25 1   
    23   15   16 1   
    24   15   17 1   
    25   15   26 1   
    26   16   27 1   
    27   16   28 1   
    28   16   29 1   
    29   17   30 1   
    30   17   31 1   
    31   17   32 1   
@<TRIPOS>SUBSTRUCTURE
     1 D8X         1 TEMP              0 ****  ****    0 ROOT
