@<TRIPOS>MOLECULE
molecule
   32    31     1     0     0
SMALL
bcc


@<TRIPOS>ATOM
      1 O3P          0.0000     0.0000     0.0000 o          1 D8X      -0.907500
      2 P            1.4800     0.0000     0.0000 p5         1 D8X       1.178900
      3 O1P          2.0160     0.0000     1.5180 o          1 D8X      -0.907500
      4 O2P          2.0160    -1.3150    -0.7580 o          1 D8X      -0.907500
      5 O5           2.0170     1.3140    -0.7580 os         1 D8X      -0.587200
      6 C5           1.6300     1.6570    -2.0900 c3         1 D8X       0.199400
      7 C4           2.3190     2.9580    -2.5040 c3         1 D8X       0.157100
      8 O4           1.8460     4.0290    -1.6850 oh         1 D8X      -0.641800
      9 C3           2.0040     3.2600    -3.9700 c3         1 D8X       0.267600
     10 O3           2.5780     2.2470    -4.7990 oh         1 D8X      -0.578800
     11 O3'          0.5880     3.2820    -4.1570 oh         1 D8X      -0.578800
     12 C2           2.5810     4.6010    -4.3420 c          1 D8X       0.534100
     13 O2           3.3300     4.6960    -5.2850 o          1 D8X      -0.561100
     14 C1           2.2220     5.8250    -3.5400 c3         1 D8X      -0.174400
     15 C1'          2.9370     7.0460    -4.1230 c3         1 D8X      -0.072700
     16 C2'          2.4760     8.3060    -3.3870 c3         1 D8X      -0.088100
     17 C22          4.4480     6.8800    -3.9560 c3         1 D8X      -0.088100
     18 H3           0.5550     1.7890    -2.1310 h1         1 D8X       0.037700
     19 H4           1.9220     0.8630    -2.7670 h1         1 D8X       0.037700
     20 H5           3.3900     2.8540    -2.3790 h1         1 D8X       0.051700
     21 H6           2.1590     3.9120    -0.8030 ho         1 D8X       0.438000
     22 H7           2.2290     2.3200    -5.6720 ho         1 D8X       0.387500
     23 H8           0.3900     3.1790    -5.0740 ho         1 D8X       0.387500
     24 H9           2.5300     5.6850    -2.5110 hc         1 D8X       0.094700
     25 H10          1.1510     5.9810    -3.5780 hc         1 D8X       0.094700
     26 H11          2.6970     7.1350    -5.1760 hc         1 D8X       0.043700
     27 H12          2.9250     9.1780    -3.8490 hc         1 D8X       0.030533
     28 H13          2.7810     8.2500    -2.3490 hc         1 D8X       0.030533
     29 H14          1.3970     8.3830    -3.4430 hc         1 D8X       0.030533
     30 H15          4.8500     6.3470    -4.8090 hc         1 D8X       0.030533
     31 H16          4.6530     6.3210    -3.0510 hc         1 D8X       0.030533
     32 H17          4.9130     7.8570    -3.8890 hc         1 D8X       0.030533
@<TRIPOS>BOND
     1    16    15 1
     2    15    14 1
     3    15    17 1
     4     1     2 1
     5    14    12 1
     6     8     7 1
     7    12    13 2
     8    12     9 1
     9     2     4 1
    10     2     3 1
    11     2     5 1
    12    10     9 1
    13     7     9 1
    14     7     6 1
    15     9    11 1
    16     5     6 1
    17     6    18 1
    18     6    19 1
    19     7    20 1
    20     8    21 1
    21    10    22 1
    22    11    23 1
    23    14    24 1
    24    14    25 1
    25    15    26 1
    26    16    27 1
    27    16    28 1
    28    16    29 1
    29    17    30 1
    30    17    31 1
    31    17    32 1
@<TRIPOS>SUBSTRUCTURE
     1 D8X         1 TEMP              0 ****  ****    0 ROOT
