@<TRIPOS>MOLECULE
D8Y
   29    30     1     0     0
SMALL
bcc


@<TRIPOS>ATOM
      1 C1           0.0000     0.0000     0.0000 ca         1 D8Y       0.443200
      2 N1           1.3200     0.0000     0.0000 nb         1 D8Y      -0.640000
      3 Cl1          2.5890     1.6620     9.2090 cl         1 D8Y      -0.028400
      4 C2           2.0150     0.0000     1.1280 ca         1 D8Y       0.513200
      5 N2           3.4030     0.0010     1.0820 nv         1 D8Y      -0.568500
      6 C3           1.3650    -0.0020     2.3580 ca         1 D8Y      -0.274600
      7 C4          -0.0170    -0.0030     2.3900 ca         1 D8Y      -0.025000
      8 C5          -0.7070     0.0030     1.1850 ca         1 D8Y      -0.277300
      9 C6           2.1580    -0.0040     3.6400 c3         1 D8Y       0.049900
     10 C7           2.5330     1.4320     4.0090 c3         1 D8Y       0.028900
     11 C8           3.3270     1.4310     5.2910 ca         1 D8Y      -0.080300
     12 C9           4.7050     1.3270     5.2510 ca         1 D8Y      -0.100000
     13 C10          5.4330     1.3260     6.4260 ca         1 D8Y      -0.087000
     14 C11          4.7830     1.4290     7.6410 ca         1 D8Y      -0.103000
     15 C12          3.4050     1.5330     7.6830 ca         1 D8Y      -0.029600
     16 C13          2.6760     1.5400     6.5060 ca         1 D8Y      -0.097000
     17 H1          -0.5350     0.0020    -0.9420 h4         1 D8Y      -0.024900
     18 HN2          3.8770     0.4450     0.3200 hn         1 D8Y       0.274300
     19 HN2A         3.9270    -0.4940     1.7760 hn         1 D8Y       0.274300
     20 H4          -0.5490    -0.0020     3.3340 ha         1 D8Y       0.107000
     21 H5          -1.7910     0.0030     1.1750 ha         1 D8Y       0.114000
     22 H6           1.5620    -0.4370     4.4340 hc         1 D8Y       0.019200
     23 H6A          3.0600    -0.5890     3.5060 hc         1 D8Y       0.019200
     24 H7           1.6320     2.0180     4.1430 hc         1 D8Y       0.024200
     25 H7A          3.1310     1.8650     3.2160 hc         1 D8Y       0.024200
     26 H9           5.2140     1.2460     4.2980 ha         1 D8Y       0.106000
     27 H10          6.5130     1.2440     6.3940 ha         1 D8Y       0.106000
     28 H11          5.3540     1.4280     8.5620 ha         1 D8Y       0.114000
     29 H13          1.6050     1.6950     6.5340 ha         1 D8Y       0.118000
@<TRIPOS>BOND
     1     1     2 ar  
     2     1     8 ar  
     3     1    17 1   
     4     2     4 ar  
     5     3    15 1   
     6     4     5 1   
     7     4     6 ar  
     8     5    18 1   
     9     5    19 1   
    10     6     7 ar  
    11     6     9 1   
    12     7     8 ar  
    13     7    20 1   
    14     8    21 1   
    15     9    10 1   
    16     9    22 1   
    17     9    23 1   
    18    10    11 1   
    19    10    24 1   
    20    10    25 1   
    21    11    12 ar  
    22    11    16 ar  
    23    12    13 ar  
    24    12    26 1   
    25    13    14 ar  
    26    13    27 1   
    27    14    15 ar  
    28    14    28 1   
    29    15    16 ar  
    30    16    29 1   
@<TRIPOS>SUBSTRUCTURE
     1 D8Y         1 TEMP              0 ****  ****    0 ROOT
