@<TRIPOS>MOLECULE
molecule
   47    50     1     0     0
SMALL
bcc


@<TRIPOS>ATOM
      1 CAA          0.0000     0.0000     0.0000 c3         1 D8Z      -0.054700
      2 CAB          1.5240     0.0000     0.0000 c3         1 D8Z      -0.087400
      3 CAC          1.9990     0.0000     1.4590 c3         1 D8Z      -0.081400
      4 CAD          1.5250    -1.2960     2.1070 c3         1 D8Z      -0.070700
      5 CAE          2.0300    -1.3480     3.5500 c3         1 D8Z      -0.089100
      6 CAF         -0.0040    -1.3950     2.1080 c3         1 D8Z      -0.070700
      7 CAG         -0.3300    -2.8190     2.6000 c3         1 D8Z      -0.097400
      8 CAH         -1.8420    -3.0450     2.5480 c3         1 D8Z      -0.125400
      9 CAI         -2.2040    -3.3770     1.0940 c3         1 D8Z       0.305600
     10 CAJ         -3.1390    -4.5860     1.0210 c3         1 D8Z      -0.069100
     11 CAM         -0.5700    -1.2380     0.6880 c3         1 D8Z       0.072800
     12 CAN         -0.3120    -2.4900    -0.1340 c3         1 D8Z       0.353900
     13 CAP         -0.1610    -1.2160    -2.1670 c3         1 D8Z       0.343900
     14 CAS         -0.5110     0.0850    -1.4380 c3         1 D8Z      -0.088700
     15 CAT          0.1540     1.2650    -2.1490 c3         1 D8Z      -0.090100
     16 OAK         -2.8120    -2.2150     0.5130 os         1 D8Z      -0.203800
     17 OAL         -1.9920    -1.0150     0.7890 os         1 D8Z      -0.202800
     18 OAO         -0.7680    -2.3100    -1.4770 os         1 D8Z      -0.445600
     19 OAQ          1.2570    -1.3910    -2.1870 os         1 D8Z      -0.450600
     20 OAU         -0.9680    -3.6350     0.4090 os         1 D8Z      -0.414600
     21 HAA         -0.3420     0.8770     0.5370 hc         1 D8Z       0.065700
     22 HAC          1.8890     0.8880    -0.5020 hc         1 D8Z       0.067700
     23 HAB          1.8890    -0.8880    -0.5020 hc         1 D8Z       0.067700
     24 HAE          1.5710     0.8470     1.9820 hc         1 D8Z       0.045700
     25 HAD          3.0800     0.0500     1.4910 hc         1 D8Z       0.045700
     26 HAF          1.9320    -2.1350     1.5550 hc         1 D8Z       0.052700
     27 HAG          1.3100    -0.8690     4.2020 hc         1 D8Z       0.036033
     28 HAH          2.9800    -0.8320     3.6190 hc         1 D8Z       0.036033
     29 HAI          2.1580    -2.3810     3.8510 hc         1 D8Z       0.036033
     30 HAJ         -0.4330    -0.6550     2.7730 hc         1 D8Z       0.074700
     31 HAK          0.0160    -2.9370     3.6200 hc         1 D8Z       0.062200
     32 HAL          0.1650    -3.5430     1.9650 hc         1 D8Z       0.062200
     33 HAM         -2.3600    -2.1470     2.8610 hc         1 D8Z       0.063700
     34 HAN         -2.1140    -3.8720     3.1930 hc         1 D8Z       0.063700
     35 HAQ         -3.2780    -4.8730    -0.0140 hc         1 D8Z       0.058033
     36 HAO         -2.7040    -5.4130     1.5690 hc         1 D8Z       0.058033
     37 HAP         -4.0970    -4.3290     1.4560 hc         1 D8Z       0.058033
     38 HAR          0.7540    -2.6780    -0.1520 h2         1 D8Z       0.087700
     39 HAS         -0.5410    -1.1750    -3.1810 h2         1 D8Z       0.079700
     40 HAT          1.6010    -2.1680    -4.0650 h1         1 D8Z       0.037367
     41 HAU          2.7360    -2.6840    -2.8090 h1         1 D8Z       0.037367
     42 HAV          1.0940    -3.3390    -2.8400 h1         1 D8Z       0.037367
     43 HAW         -1.5860     0.2180    -1.4320 hc         1 D8Z       0.087700
     44 HAX          1.1680     0.9980    -2.4200 hc         1 D8Z       0.042033
     45 HAY          0.1700     2.1220    -1.4870 hc         1 D8Z       0.042033
     46 HAZ         -0.4070     1.5090    -3.0430 hc         1 D8Z       0.042033
     47 CAR          1.6990    -2.4600    -3.0260 c3         1 D8Z       0.117700
@<TRIPOS>BOND
     1    15    14 1
     2     2     3 1
     3     2     1 1
     4     3     4 1
     5    14     1 1
     6    14    13 1
     7     1    11 1
     8    19    13 1
     9    19    47 1
    10    13    18 1
    11     5     4 1
    12     4     6 1
    13     6    11 1
    14     6     7 1
    15    11    17 1
    16    11    12 1
    17    17    16 1
    18    18    12 1
    19    12    20 1
    20     7     8 1
    21    16     9 1
    22    20     9 1
    23     8     9 1
    24     9    10 1
    25     1    21 1
    26     2    22 1
    27     2    23 1
    28     3    24 1
    29     3    25 1
    30     4    26 1
    31     5    27 1
    32     5    28 1
    33     5    29 1
    34     6    30 1
    35     7    31 1
    36     7    32 1
    37     8    33 1
    38     8    34 1
    39    10    35 1
    40    10    36 1
    41    10    37 1
    42    12    38 1
    43    13    39 1
    44    47    40 1
    45    47    41 1
    46    47    42 1
    47    14    43 1
    48    15    44 1
    49    15    45 1
    50    15    46 1
@<TRIPOS>SUBSTRUCTURE
     1 D8Z         1 TEMP              0 ****  ****    0 ROOT
