@<TRIPOS>MOLECULE
D90
   52    56     1     0     0
SMALL
bcc


@<TRIPOS>ATOM
      1 C1           0.0000     0.0000     0.0000 cc         1 D90      -0.348300
      2 N1           1.3810     0.0000     0.0000 na         1 D90       0.366600
      3 O1          -2.0640    -0.0000    -1.0830 o          1 D90      -0.614100
      4 Cl1          2.2930    -0.0260     5.7910 cl         1 D90      -0.029400
      5 C2          -0.8530     0.0010    -1.1980 c          1 D90       0.617300
      6 C3          -0.4460    -0.0070     1.2840 cd         1 D90      -0.050200
      7 C4           0.6870    -0.0100     2.1330 ca         1 D90      -0.117800
      8 C5           1.8240     0.0000     1.3020 ca         1 D90      -0.217200
      9 C6           0.8450    -0.0160     3.5250 ca         1 D90      -0.027000
     10 C7           3.0920    -0.0010     1.8760 ca         1 D90      -0.099000
     11 C8           3.2230    -0.0000     3.2470 ca         1 D90      -0.071000
     12 C9           2.1000    -0.0190     4.0660 ca         1 D90      -0.064600
     13 C10         -2.7000    -0.2960    -5.8170 ca         1 D90      -0.086000
     14 C11         -1.4510    -0.8900    -5.8090 ca         1 D90      -0.104000
     15 C13         -3.1500     0.3930    -4.7060 ca         1 D90      -0.097000
     16 C15         -2.3540     0.4930    -3.5800 ca         1 D90      -0.084000
     17 CC1          1.2680    -1.6200    -5.8320 c          1 D90       0.503600
     18 OC1          0.8030    -1.2100    -6.8780 o          1 D90      -0.588100
     19 CP1         -1.1000    -0.0990    -3.5630 ca         1 D90      -0.124400
     20 NP1         -0.2920     0.0010    -2.4240 ns         1 D90      -0.047100
     21 CP2         -0.6460    -0.7950    -4.6830 ca         1 D90      -0.115400
     22 NP2          0.6180    -1.3960    -4.6720 ns         1 D90      -0.028100
     23 CZ1          2.5400    -2.3610    -5.8310 cc         1 D90       0.362900
     24 NZ1          3.2550    -2.6370    -6.8830 nd         1 D90      -0.445000
     25 SZ1          3.3460    -3.0100    -4.4070 ss         1 D90      -0.309300
     26 CZ2          4.6060    -3.6200    -5.3840 cc         1 D90      -0.097700
     27 NZ2          6.4370    -5.0530    -6.0570 n3         1 D90      -0.545600
     28 CZ3          5.8160    -4.3880    -4.9010 c3         1 D90       0.261100
     29 CZ4          6.6640    -4.0990    -7.1520 c3         1 D90       0.141800
     30 CZ5          5.3280    -3.7200    -7.7920 c3         1 D90      -0.035700
     31 CZ6          4.3660    -3.3100    -6.6830 cd         1 D90       0.307600
     32 CZ7          7.6900    -5.7170    -5.6710 c3         1 D90       0.190100
     33 HN1          1.9640     0.0010    -0.8140 hn         1 D90       0.111700
     34 H3          -1.4820    -0.0080     1.6010 ha         1 D90       0.145000
     35 H6          -0.0220    -0.1020     4.1690 ha         1 D90       0.116000
     36 H7           3.9730     0.0140     1.2460 ha         1 D90       0.103000
     37 H8           4.2100     0.0140     3.6920 ha         1 D90       0.113000
     38 H10         -3.3270    -0.3710    -6.6970 ha         1 D90       0.106000
     39 H11         -1.1020    -1.4300    -6.6810 ha         1 D90       0.155000
     40 H13         -4.1290     0.8570    -4.7180 ha         1 D90       0.106000
     41 H15         -2.7100     1.0340    -2.7120 ha         1 D90       0.147000
     42 HNP1         0.6960     0.1300    -2.5220 hn         1 D90       0.154500
     43 HNP2         1.0210    -1.6960    -3.8070 hn         1 D90       0.165500
     44 HZ3          5.5090    -5.1320    -4.1760 h1         1 D90       0.022200
     45 HZ3A         6.5250    -3.7040    -4.4510 h1         1 D90       0.022200
     46 HZ4          7.1030    -3.2020    -6.7320 h1         1 D90       0.019200
     47 HZ4A         7.2700    -4.5890    -7.9050 h1         1 D90       0.019200
     48 HZ5          4.9260    -4.5950    -8.2860 hc         1 D90       0.039200
     49 HZ5A         5.4900    -2.8640    -8.4370 hc         1 D90       0.039200
     50 HZ7          8.4270    -4.9700    -5.4020 h1         1 D90       0.003367
     51 HZ7A         7.5080    -6.3660    -4.8230 h1         1 D90       0.003367
     52 HZ7B         8.0590    -6.3040    -6.5030 h1         1 D90       0.003367
@<TRIPOS>BOND
     1     1     2 1   
     2     1     5 1   
     3     1     6 2   
     4     2     8 1   
     5     2    33 1   
     6     3     5 2   
     7     4    12 1   
     8     5    20 1   
     9     6     7 1   
    10     6    34 1   
    11     7     8 ar  
    12     7     9 ar  
    13     8    10 ar  
    14     9    12 ar  
    15     9    35 1   
    16    10    11 ar  
    17    10    36 1   
    18    11    12 ar  
    19    11    37 1   
    20    13    14 ar  
    21    13    15 ar  
    22    13    38 1   
    23    14    21 ar  
    24    14    39 1   
    25    15    16 ar  
    26    15    40 1   
    27    16    19 ar  
    28    16    41 1   
    29    17    18 2   
    30    17    22 1   
    31    17    23 1   
    32    19    20 1   
    33    19    21 ar  
    34    20    42 1   
    35    21    22 1   
    36    22    43 1   
    37    23    24 2   
    38    23    25 1   
    39    24    31 1   
    40    25    26 1   
    41    26    28 1   
    42    26    31 2   
    43    27    28 1   
    44    27    29 1   
    45    27    32 1   
    46    28    44 1   
    47    28    45 1   
    48    29    30 1   
    49    29    46 1   
    50    29    47 1   
    51    30    31 1   
    52    30    48 1   
    53    30    49 1   
    54    32    50 1   
    55    32    51 1   
    56    32    52 1   
@<TRIPOS>SUBSTRUCTURE
     1 D90         1 TEMP              0 ****  ****    0 ROOT
