@<TRIPOS>MOLECULE
molecule
   58    62     1     0     0
SMALL
bcc


@<TRIPOS>ATOM
      1 Cl1          0.0000     0.0000     0.0000 cl         1 D92      -0.105400
      2 C16          1.7230     0.0000     0.0000 ca         1 D92      -0.001600
      3 C17          2.4130     0.0000     1.2100 ca         1 D92      -0.102000
      4 C18          3.8110     0.0000     1.2430 ca         1 D92      -0.131000
      5 C12          4.4870     0.0010     0.0180 ca         1 D92      -0.049200
      6 N11          5.8370     0.0020    -0.2530 na         1 D92      -0.133400
      7 C15          2.4130     0.0000    -1.2180 ca         1 D92      -0.072000
      8 C13          3.8210     0.0010    -1.2110 ca         1 D92      -0.094800
      9 C14          4.8180     0.0010    -2.2260 cc         1 D92      -0.187200
     10 C10          5.9950     0.0020    -1.5820 cd         1 D92      -0.100300
     11 C9           7.3430     0.0020    -2.2070 c          1 D92       0.692300
     12 O19          8.3380    -0.0170    -1.4870 o          1 D92      -0.602100
     13 N7           7.3690     0.0030    -3.5940 ns         1 D92      -0.572900
     14 C1           8.6190    -0.0210    -4.3580 c3         1 D92       0.106700
     15 C6           9.0670    -1.4760    -4.5690 c3         1 D92      -0.094400
     16 C5           8.1970    -2.2330    -5.5750 c3         1 D92      -0.081400
     17 C4           8.0960    -1.4890    -6.9030 c3         1 D92      -0.076400
     18 C3           7.6280    -0.0460    -6.7200 c3         1 D92      -0.088400
     19 C2           8.5150     0.7070    -5.7170 c3         1 D92       0.105700
     20 N8           8.0400     2.0840    -5.5520 ns         1 D92      -0.570900
     21 C20          8.9010     3.1410    -5.3060 c          1 D92       0.599600
     22 O31         10.1210     3.0450    -5.2010 o          1 D92      -0.596100
     23 C21          8.2760     4.4340    -5.1420 cc         1 D92       0.320900
     24 S25          9.2410     5.8260    -4.8310 ss         1 D92       0.006700
     25 C24          7.8200     6.7570    -4.7900 cc         1 D92      -0.221700
     26 C26          7.7660     8.2330    -4.5710 c3         1 D92       0.243100
     27 N27          6.4000     8.6990    -4.2330 n3         1 D92      -0.716600
     28 C30          6.1040     8.5420    -2.8090 c3         1 D92       0.147100
     29 C28          5.3730     8.0590    -5.0870 c3         1 D92       0.159800
     30 C29          5.3380     6.5140    -5.0150 c3         1 D92      -0.143700
     31 C23          6.7180     5.9600    -5.0190 cd         1 D92       0.335600
     32 N22          6.9760     4.6210    -5.2170 nd         1 D92      -0.613000
     33 H17          1.8580    -0.0000     2.1400 ha         1 D92       0.145000
     34 H18          4.3510     0.0000     2.1820 ha         1 D92       0.142000
     35 HN11         6.5720     0.0020     0.4260 hn         1 D92       0.321700
     36 H15          1.8690     0.0000    -2.1560 ha         1 D92       0.147000
     37 H14          4.6860     0.6060    -3.1140 ha         1 D92       0.157000
     38 HN7          6.5000     0.0200    -4.0910 hn         1 D92       0.320500
     39 H1           9.3820     0.4790    -3.7730 h1         1 D92       0.088700
     40 H61          9.0250    -1.9930    -3.6180 hc         1 D92       0.056700
     41 H62         10.0890    -1.4760    -4.9270 hc         1 D92       0.056700
     42 H51          7.2030    -2.3520    -5.1620 hc         1 D92       0.045200
     43 H52          8.6320    -3.2090    -5.7520 hc         1 D92       0.045200
     44 H41          7.3900    -2.0070    -7.5410 hc         1 D92       0.046200
     45 H42          9.0700    -1.4840    -7.3770 hc         1 D92       0.046200
     46 H31          7.6670     0.4610    -7.6760 hc         1 D92       0.046700
     47 H32          6.6080    -0.0490    -6.3560 hc         1 D92       0.046700
     48 H2           9.5120     0.7510    -6.1380 h1         1 D92       0.084700
     49 HN8          7.0580     2.2670    -5.6210 hn         1 D92       0.335500
     50 H261         8.0930     8.7330    -5.4750 h1         1 D92       0.067700
     51 H262         8.4350     8.4910    -3.7580 h1         1 D92       0.067700
     52 H301         6.6370     9.2970    -2.2440 h1         1 D92       0.037033
     53 H302         5.0390     8.6540    -2.6460 h1         1 D92       0.037033
     54 H303         6.4180     7.5580    -2.4820 h1         1 D92       0.037033
     55 H281         4.4080     8.4160    -4.7460 h1         1 D92       0.061700
     56 H282         5.6010     8.3250    -6.1120 h1         1 D92       0.061700
     57 H291         4.8300     6.1500    -5.9000 hc         1 D92       0.067700
     58 H292         4.8690     6.2340    -4.0790 hc         1 D92       0.067700
@<TRIPOS>BOND
     1     1     2 1
     2     2     7 ar
     3     2     3 ar
     4     3     4 ar
     5     3    33 1
     6     4     5 ar
     7     4    34 1
     8     5     8 ar
     9     5     6 1
    10     6    10 1
    11     6    35 1
    12     7     8 ar
    13     7    36 1
    14     8     9 1
    15     9    10 2
    16     9    37 1
    17    10    11 1
    18    11    13 1
    19    11    12 2
    20    13    14 1
    21    13    38 1
    22    14    15 1
    23    14    19 1
    24    14    39 1
    25    15    16 1
    26    15    40 1
    27    15    41 1
    28    16    17 1
    29    16    42 1
    30    16    43 1
    31    17    18 1
    32    17    44 1
    33    17    45 1
    34    18    19 1
    35    18    46 1
    36    18    47 1
    37    19    20 1
    38    19    48 1
    39    20    21 1
    40    20    49 1
    41    21    23 1
    42    21    22 2
    43    23    32 2
    44    23    24 1
    45    24    25 1
    46    25    26 1
    47    25    31 2
    48    26    27 1
    49    26    50 1
    50    26    51 1
    51    27    28 1
    52    27    29 1
    53    28    52 1
    54    28    53 1
    55    28    54 1
    56    29    30 1
    57    29    55 1
    58    29    56 1
    59    30    31 1
    60    30    57 1
    61    30    58 1
    62    31    32 1
@<TRIPOS>SUBSTRUCTURE
     1 D92         1 TEMP              0 ****  ****    0 ROOT
