@<TRIPOS>MOLECULE
D93
   58    62     1     0     0
SMALL
bcc


@<TRIPOS>ATOM
      1 Cl1          0.0000     0.0000     0.0000 cl         1 D93      -0.029400
      2 C16          1.7230     0.0000     0.0000 ca         1 D93      -0.058600
      3 C17          2.4130     0.0000     1.2110 ca         1 D93      -0.087000
      4 C18          3.8110     0.0010     1.2440 ca         1 D93      -0.084000
      5 C12          4.4860     0.0020     0.0180 ca         1 D93      -0.255200
      6 N11          5.8360     0.0020    -0.2520 na         1 D93       0.443600
      7 C15          2.4120     0.0020    -1.2180 ca         1 D93      -0.042000
      8 C13          3.8220     0.0020    -1.2100 ca         1 D93      -0.085800
      9 C14          4.8190     0.0030    -2.2250 cc         1 D93      -0.171200
     10 C10          5.9960     0.0040    -1.5800 cd         1 D93      -0.317300
     11 C9           7.3440     0.0050    -2.2060 c          1 D93       0.626300
     12 O19          8.3380    -0.0160    -1.4860 o          1 D93      -0.631100
     13 N7           7.3650     0.0050    -3.5900 ns         1 D93      -0.210900
     14 C1           8.6360    -0.0180    -4.3670 c3         1 D93       0.018700
     15 C6           8.4380     0.7670    -5.6670 c3         1 D93      -0.035400
     16 C5           7.5490     0.0380    -6.6730 c3         1 D93      -0.023400
     17 C4           8.0530    -1.3740    -6.9490 c3         1 D93      -0.024400
     18 C3           8.1990    -2.1840    -5.6620 c3         1 D93      -0.033400
     19 C2           9.0490    -1.4780    -4.6010 c3         1 D93       0.014700
     20 N8          10.4820    -1.5230    -5.0030 ns         1 D93      -0.200900
     21 C20         11.5070    -1.6040    -4.0770 c          1 D93       0.509600
     22 O31         11.3550    -1.6460    -2.8590 o          1 D93      -0.609100
     23 C21         12.8460    -1.6130    -4.6220 cc         1 D93       0.354900
     24 S25         14.2060    -1.7100    -3.5710 ss         1 D93      -0.142300
     25 C24         15.2180    -1.6620    -4.9340 cc         1 D93      -0.162700
     26 C26         16.7090    -1.7300    -4.9000 c3         1 D93       0.258100
     27 N27         17.3190    -1.3100    -6.1860 n3         1 D93      -0.540600
     28 C30         17.4500     0.1430    -6.2800 c3         1 D93       0.180100
     29 C28         16.5970    -1.8790    -7.3470 c3         1 D93       0.152800
     30 C29         15.0990    -1.5040    -7.4310 c3         1 D93      -0.079700
     31 C23         14.4650    -1.5840    -6.0880 cd         1 D93       0.308600
     32 N22         13.0990    -1.5500    -5.9120 nd         1 D93      -0.540000
     33 H17          1.8580    -0.0010     2.1410 ha         1 D93       0.113000
     34 H18          4.3510     0.0010     2.1830 ha         1 D93       0.111000
     35 HN11         6.5710     0.0020     0.4270 hn         1 D93       0.134700
     36 H15          1.8690     0.0030    -2.1550 ha         1 D93       0.114000
     37 H14          4.6870     0.6100    -3.1130 ha         1 D93       0.133000
     38 HN7          6.4960     0.0230    -4.0860 hn         1 D93       0.192500
     39 H1           9.4110     0.4680    -3.7870 h1         1 D93       0.063700
     40 H61          9.4070     0.9380    -6.1210 hc         1 D93       0.024200
     41 H62          7.9850     1.7220    -5.4310 hc         1 D93       0.024200
     42 H51          6.5430    -0.0190    -6.2760 hc         1 D93       0.015200
     43 H52          7.5380     0.5950    -7.6020 hc         1 D93       0.015200
     44 H41          9.0170    -1.3140    -7.4380 hc         1 D93       0.017200
     45 H42          7.3500    -1.8770    -7.6030 hc         1 D93       0.017200
     46 H31          8.6620    -3.1340    -5.9010 hc         1 D93       0.024700
     47 H32          7.2130    -2.3650    -5.2520 hc         1 D93       0.024700
     48 H2           8.9360    -2.0140    -3.6670 h1         1 D93       0.062700
     49 HN8         10.7120    -1.4950    -5.9770 hn         1 D93       0.200500
     50 H261        17.0070    -2.7490    -4.6870 h1         1 D93       0.034700
     51 H262        17.0710    -1.0800    -4.1130 h1         1 D93       0.034700
     52 H301        18.2620     0.4750    -5.6440 h1         1 D93       0.004700
     53 H302        17.6580     0.4210    -7.3060 h1         1 D93       0.004700
     54 H303        16.5260     0.6100    -5.9590 h1         1 D93       0.004700
     55 H281        17.0730    -1.4900    -8.2390 h1         1 D93       0.027700
     56 H282        16.6500    -2.9570    -7.2580 h1         1 D93       0.027700
     57 H291        14.6090    -2.2250    -8.0750 hc         1 D93       0.036200
     58 H292        15.0300    -0.4770    -7.7710 hc         1 D93       0.036200
@<TRIPOS>BOND
     1     1     2 1   
     2     2     3 ar  
     3     2     7 ar  
     4     3     4 ar  
     5     3    33 1   
     6     4     5 ar  
     7     4    34 1   
     8     5     6 1   
     9     5     8 ar  
    10     6    10 1   
    11     6    35 1   
    12     7     8 ar  
    13     7    36 1   
    14     8     9 1   
    15     9    10 2   
    16     9    37 1   
    17    10    11 1   
    18    11    12 2   
    19    11    13 1   
    20    13    14 1   
    21    13    38 1   
    22    14    15 1   
    23    14    19 1   
    24    14    39 1   
    25    15    16 1   
    26    15    40 1   
    27    15    41 1   
    28    16    17 1   
    29    16    42 1   
    30    16    43 1   
    31    17    18 1   
    32    17    44 1   
    33    17    45 1   
    34    18    19 1   
    35    18    46 1   
    36    18    47 1   
    37    19    20 1   
    38    19    48 1   
    39    20    21 1   
    40    20    49 1   
    41    21    22 2   
    42    21    23 1   
    43    23    24 1   
    44    23    32 2   
    45    24    25 1   
    46    25    26 1   
    47    25    31 2   
    48    26    27 1   
    49    26    50 1   
    50    26    51 1   
    51    27    28 1   
    52    27    29 1   
    53    28    52 1   
    54    28    53 1   
    55    28    54 1   
    56    29    30 1   
    57    29    55 1   
    58    29    56 1   
    59    30    31 1   
    60    30    57 1   
    61    30    58 1   
    62    31    32 1   
@<TRIPOS>SUBSTRUCTURE
     1 D93         1 TEMP              0 ****  ****    0 ROOT
