@<TRIPOS>MOLECULE
D94
   68    74     1     0     0
SMALL
bcc


@<TRIPOS>ATOM
      1 N5           0.0000     0.0000     0.0000 nv         1 D94      -0.636500
      2 C3           1.3840     0.0000     0.0000 cc         1 D94       0.609200
      3 C4           2.0960     0.0000     1.2180 cc         1 D94      -0.448600
      4 N2           3.4770    -0.0000     1.1910 na         1 D94       0.584800
      5 C2           4.1150    -0.0020    -0.0290 cc         1 D94      -0.429600
      6 C1           3.3890    -0.0020    -1.1620 cd         1 D94       0.446200
      7 N1           2.0510    -0.0060    -1.1400 nd         1 D94      -0.651000
      8 C5           3.9000     0.0010     2.4680 cc         1 D94       0.103800
      9 C22          5.3430     0.0010     2.9040 cy         1 D94      -0.059000
     10 C23          5.7290    -1.2190     3.7580 cy         1 D94      -0.028900
     11 C24          6.5630    -0.2540     4.6180 cy         1 D94       0.099500
     12 N6           6.4820    -0.5320     6.0580 n3         1 D94      -0.524600
     13 C26          7.0360     0.5820     6.8410 c3         1 D94       0.150800
     14 C27          6.8620     0.2900     8.3330 c3         1 D94       0.154300
     15 N7           7.5400    -0.9710     8.6650 n3         1 D94      -0.550600
     16 C30          7.4600    -1.2500    10.1040 c3         1 D94       0.189100
     17 C28          6.9850    -2.0860     7.8820 c3         1 D94       0.154300
     18 C29          7.1590    -1.7940     6.3890 c3         1 D94       0.150800
     19 C25          5.6100     0.8600     4.1520 cy         1 D94      -0.028900
     20 N3           2.8710     0.0020     3.2750 nd         1 D94      -0.449300
     21 C6           1.7340     0.0010     2.5600 cd         1 D94       0.080400
     22 C7           0.3560     0.0030     3.0980 ca         1 D94       0.013200
     23 C8          -0.5880    -0.8630     2.5710 ca         1 D94      -0.147300
     24 C12         -1.8940    -0.8590     3.0850 ca         1 D94       0.376600
     25 C11         -2.2220     0.0340     4.1370 ca         1 D94      -0.153300
     26 C9          -1.2420     0.9020     4.6510 ca         1 D94      -0.087000
     27 C10          0.0180     0.8790     4.1450 ca         1 D94      -0.077000
     28 N4          -2.8240    -1.6830     2.5950 nb         1 D94      -0.569000
     29 C13         -4.0560    -1.6870     3.0720 cp         1 D94       0.449800
     30 C14         -4.4400    -0.8260     4.1100 ca         1 D94      -0.222300
     31 C15         -3.5330     0.0360     4.6510 ca         1 D94      -0.050000
     32 C16         -5.0530    -2.6190     2.4950 cp         1 D94      -0.157500
     33 C17         -4.6900    -3.4810     1.4610 ca         1 D94      -0.079500
     34 C18         -5.6220    -4.3470     0.9290 ca         1 D94      -0.108000
     35 C19         -6.9160    -4.3620     1.4170 ca         1 D94      -0.092000
     36 C20         -7.2830    -3.5090     2.4430 ca         1 D94      -0.108000
     37 C21         -6.3570    -2.6420     2.9880 ca         1 D94      -0.079500
     38 HN5         -0.5000     0.8470     0.1870 hn         1 D94       0.290300
     39 HN5A        -0.5000    -0.8300    -0.2530 hn         1 D94       0.290300
     40 H2           5.1970     0.0020    -0.0760 h4         1 D94       0.148000
     41 H1           3.9010    -0.0080    -2.1170 h4         1 D94      -0.011900
     42 H22          6.0500     0.1930     2.1050 hc         1 D94       0.038700
     43 H23          6.3340    -1.9390     3.2200 hc         1 D94       0.039950
     44 H23A         4.8880    -1.6450     4.2920 hc         1 D94       0.039950
     45 H24          7.5710    -0.1250     4.2440 h1         1 D94       0.026700
     46 H26          8.0900     0.6910     6.6160 h1         1 D94       0.014700
     47 H26A         6.5110     1.4960     6.5890 h1         1 D94       0.014700
     48 H27          7.2980     1.0960     8.9110 h1         1 D94       0.014200
     49 H27A         5.8070     0.2030     8.5620 h1         1 D94       0.014200
     50 H30          7.9040    -0.4300    10.6560 h1         1 D94       0.000033
     51 H30A         6.4220    -1.3590    10.3940 h1         1 D94       0.000033
     52 H30B         7.9950    -2.1650    10.3250 h1         1 D94       0.000033
     53 H28          7.5110    -2.9990     8.1340 h1         1 D94       0.014200
     54 H28A         5.9310    -2.1950     8.1070 h1         1 D94       0.014200
     55 H29          8.2150    -1.7070     6.1600 h1         1 D94       0.014700
     56 H29A         6.7230    -2.5990     5.8110 h1         1 D94       0.014700
     57 H25          6.1210     1.7880     3.9260 hc         1 D94       0.039950
     58 H25A         4.7390     0.9660     4.7870 hc         1 D94       0.039950
     59 H8          -0.2880    -1.6240     1.8610 ha         1 D94       0.126000
     60 H9          -1.4890     1.5820     5.4570 ha         1 D94       0.107000
     61 H10          0.7700     1.5440     4.5510 ha         1 D94       0.116000
     62 H14         -5.4570    -0.8480     4.4840 ha         1 D94       0.121000
     63 H15         -3.8140     0.7070     5.4540 ha         1 D94       0.110000
     64 H17         -3.6770    -3.4720     1.0760 ha         1 D94       0.116000
     65 H18         -5.3410    -5.0170     0.1250 ha         1 D94       0.102500
     66 H19         -7.6460    -5.0420     0.9940 ha         1 D94       0.101000
     67 H20         -8.2970    -3.5250     2.8240 ha         1 D94       0.102500
     68 H21         -6.6450    -1.9750     3.7910 ha         1 D94       0.116000
@<TRIPOS>BOND
     1     1     2 1   
     2     1    38 1   
     3     1    39 1   
     4     2     3 1   
     5     2     7 2   
     6     3     4 1   
     7     3    21 2   
     8     4     5 1   
     9     4     8 1   
    10     5     6 2   
    11     5    40 1   
    12     6     7 1   
    13     6    41 1   
    14     8     9 1   
    15     8    20 2   
    16     9    10 1   
    17     9    19 1   
    18     9    42 1   
    19    10    11 1   
    20    10    43 1   
    21    10    44 1   
    22    11    12 1   
    23    11    19 1   
    24    11    45 1   
    25    12    13 1   
    26    12    18 1   
    27    13    14 1   
    28    13    46 1   
    29    13    47 1   
    30    14    15 1   
    31    14    48 1   
    32    14    49 1   
    33    15    16 1   
    34    15    17 1   
    35    16    50 1   
    36    16    51 1   
    37    16    52 1   
    38    17    18 1   
    39    17    53 1   
    40    17    54 1   
    41    18    55 1   
    42    18    56 1   
    43    19    57 1   
    44    19    58 1   
    45    20    21 1   
    46    21    22 1   
    47    22    23 ar  
    48    22    27 ar  
    49    23    24 ar  
    50    23    59 1   
    51    24    25 ar  
    52    24    28 ar  
    53    25    26 ar  
    54    25    31 ar  
    55    26    27 ar  
    56    26    60 1   
    57    27    61 1   
    58    28    29 ar  
    59    29    30 ar  
    60    29    32 1   
    61    30    31 ar  
    62    30    62 1   
    63    31    63 1   
    64    32    33 ar  
    65    32    37 ar  
    66    33    34 ar  
    67    33    64 1   
    68    34    35 ar  
    69    34    65 1   
    70    35    36 ar  
    71    35    66 1   
    72    36    37 ar  
    73    36    67 1   
    74    37    68 1   
@<TRIPOS>SUBSTRUCTURE
     1 D94         1 TEMP              0 ****  ****    0 ROOT
