@<TRIPOS>MOLECULE
molecule
   68    74     1     0     0
SMALL
bcc


@<TRIPOS>ATOM
      1 N5           0.0000     0.0000     0.0000 nv         1 D94      -1.063500
      2 C3           1.3840     0.0000     0.0000 cc         1 D94       0.749200
      3 C4           2.0960     0.0000     1.2180 cc         1 D94      -0.248600
      4 N2           3.4770    -0.0000     1.1910 na         1 D94      -0.002200
      5 C2           4.1150    -0.0020    -0.0290 cc         1 D94      -0.230600
      6 C1           3.3890    -0.0020    -1.1620 cd         1 D94       0.407200
      7 N1           2.0510    -0.0060    -1.1400 nd         1 D94      -0.731000
      8 C5           3.9000     0.0010     2.4680 cc         1 D94       0.358800
      9 C22          5.3430     0.0010     2.9040 cy         1 D94      -0.097000
     10 C23          5.7290    -1.2190     3.7580 cy         1 D94      -0.073400
     11 C24          6.5630    -0.2540     4.6180 cy         1 D94       0.137500
     12 N6           6.4820    -0.5320     6.0580 n3         1 D94      -0.714600
     13 C26          7.0360     0.5820     6.8410 c3         1 D94       0.162800
     14 C27          6.8620     0.2900     8.3330 c3         1 D94       0.162800
     15 N7           7.5400    -0.9710     8.6650 n3         1 D94      -0.734600
     16 C30          7.4600    -1.2500    10.1040 c3         1 D94       0.153100
     17 C28          6.9850    -2.0860     7.8820 c3         1 D94       0.162800
     18 C29          7.1590    -1.7940     6.3890 c3         1 D94       0.162800
     19 C25          5.6100     0.8600     4.1520 cy         1 D94      -0.073400
     20 N3           2.8710     0.0020     3.2750 nd         1 D94      -0.552300
     21 C6           1.7340     0.0010     2.5600 cd         1 D94       0.109400
     22 C7           0.3560     0.0030     3.0980 ca         1 D94       0.008200
     23 C8          -0.5880    -0.8630     2.5710 ca         1 D94      -0.147300
     24 C12         -1.8940    -0.8590     3.0850 ca         1 D94       0.419600
     25 C11         -2.2220     0.0340     4.1370 ca         1 D94      -0.155300
     26 C9          -1.2420     0.9020     4.6510 ca         1 D94      -0.119000
     27 C10          0.0180     0.8790     4.1450 ca         1 D94      -0.100000
     28 N4          -2.8240    -1.6830     2.5950 nb         1 D94      -0.687000
     29 C13         -4.0560    -1.6870     3.0720 cp         1 D94       0.495800
     30 C14         -4.4400    -0.8260     4.1100 ca         1 D94      -0.245300
     31 C15         -3.5330     0.0360     4.6510 ca         1 D94      -0.077000
     32 C16         -5.0530    -2.6190     2.4950 cp         1 D94      -0.151500
     33 C17         -4.6900    -3.4810     1.4610 ca         1 D94      -0.099500
     34 C18         -5.6220    -4.3470     0.9290 ca         1 D94      -0.136500
     35 C19         -6.9160    -4.3620     1.4170 ca         1 D94      -0.117000
     36 C20         -7.2830    -3.5090     2.4430 ca         1 D94      -0.136500
     37 C21         -6.3570    -2.6420     2.9880 ca         1 D94      -0.099500
     38 HN5         -0.5000     0.8470     0.1870 hn         1 D94       0.448800
     39 HN5A        -0.5000    -0.8300    -0.2530 hn         1 D94       0.448800
     40 H2           5.1970     0.0020    -0.0760 h4         1 D94       0.165000
     41 H1           3.9010    -0.0080    -2.1170 h4         1 D94       0.036100
     42 H22          6.0500     0.1930     2.1050 hc         1 D94       0.068700
     43 H23          6.3340    -1.9390     3.2200 hc         1 D94       0.070950
     44 H23A         4.8880    -1.6450     4.2920 hc         1 D94       0.070950
     45 H24          7.5710    -0.1250     4.2440 h1         1 D94       0.042700
     46 H26          8.0900     0.6910     6.6160 h1         1 D94       0.040700
     47 H26A         6.5110     1.4960     6.5890 h1         1 D94       0.040700
     48 H27          7.2980     1.0960     8.9110 h1         1 D94       0.041200
     49 H27A         5.8070     0.2030     8.5620 h1         1 D94       0.041200
     50 H30          7.9040    -0.4300    10.6560 h1         1 D94       0.031700
     51 H30A         6.4220    -1.3590    10.3940 h1         1 D94       0.031700
     52 H30B         7.9950    -2.1650    10.3250 h1         1 D94       0.031700
     53 H28          7.5110    -2.9990     8.1340 h1         1 D94       0.041200
     54 H28A         5.9310    -2.1950     8.1070 h1         1 D94       0.041200
     55 H29          8.2150    -1.7070     6.1600 h1         1 D94       0.040700
     56 H29A         6.7230    -2.5990     5.8110 h1         1 D94       0.040700
     57 H25          6.1210     1.7880     3.9260 hc         1 D94       0.070950
     58 H25A         4.7390     0.9660     4.7870 hc         1 D94       0.070950
     59 H8          -0.2880    -1.6240     1.8610 ha         1 D94       0.153000
     60 H9          -1.4890     1.5820     5.4570 ha         1 D94       0.134000
     61 H10          0.7700     1.5440     4.5510 ha         1 D94       0.145000
     62 H14         -5.4570    -0.8480     4.4840 ha         1 D94       0.140000
     63 H15         -3.8140     0.7070     5.4540 ha         1 D94       0.140000
     64 H17         -3.6770    -3.4720     1.0760 ha         1 D94       0.142000
     65 H18         -5.3410    -5.0170     0.1250 ha         1 D94       0.131500
     66 H19         -7.6460    -5.0420     0.9940 ha         1 D94       0.129000
     67 H20         -8.2970    -3.5250     2.8240 ha         1 D94       0.131500
     68 H21         -6.6450    -1.9750     3.7910 ha         1 D94       0.142000
@<TRIPOS>BOND
     1     1     2 1
     2     1    38 1
     3     1    39 1
     4     2     7 2
     5     2     3 1
     6    21     3 2
     7     3     4 1
     8     4     5 1
     9     4     8 1
    10     6     5 2
    11     5    40 1
    12     7     6 1
    13     6    41 1
    14    20     8 2
    15     8     9 1
    16     9    10 1
    17     9    19 1
    18     9    42 1
    19    10    11 1
    20    10    43 1
    21    10    44 1
    22    19    11 1
    23    11    12 1
    24    11    45 1
    25    13    12 1
    26    12    18 1
    27    13    14 1
    28    13    46 1
    29    13    47 1
    30    14    15 1
    31    14    48 1
    32    14    49 1
    33    15    17 1
    34    15    16 1
    35    16    50 1
    36    16    51 1
    37    16    52 1
    38    18    17 1
    39    17    53 1
    40    17    54 1
    41    18    55 1
    42    18    56 1
    43    19    57 1
    44    19    58 1
    45    21    20 1
    46    22    21 1
    47    23    22 ar
    48    27    22 ar
    49    24    23 ar
    50    23    59 1
    51    28    24 ar
    52    25    24 ar
    53    31    25 ar
    54    25    26 ar
    55    26    27 ar
    56    26    60 1
    57    27    61 1
    58    29    28 ar
    59    32    29 1
    60    30    29 ar
    61    30    31 ar
    62    30    62 1
    63    31    63 1
    64    37    32 ar
    65    33    32 ar
    66    34    33 ar
    67    33    64 1
    68    35    34 ar
    69    34    65 1
    70    35    36 ar
    71    35    66 1
    72    36    37 ar
    73    36    67 1
    74    37    68 1
@<TRIPOS>SUBSTRUCTURE
     1 D94         1 TEMP              0 ****  ****    0 ROOT
