@<TRIPOS>MOLECULE
molecule
   48    51     1     0     0
SMALL
bcc


@<TRIPOS>ATOM
      1 C1           0.0000     0.0000     0.0000 ca         1 D98      -0.096000
      2 C2           1.3830     0.0000     0.0000 ca         1 D98       0.137100
      3 C3           2.0800     0.0000     1.2140 cp         1 D98      -0.001000
      4 C4           1.3780    -0.0000     2.4200 ca         1 D98      -0.082000
      5 C5           0.0030     0.0010     2.4180 ca         1 D98      -0.142000
      6 C6          -0.6970     0.0000     1.2090 ca         1 D98      -0.172900
      7 C7           3.5610    -0.0010     1.2190 cp         1 D98      -0.047000
      8 C8           4.2570     0.9250     1.9970 ca         1 D98      -0.096500
      9 C9           5.6330     0.9250     2.0010 ca         1 D98      -0.093000
     10 C10          6.3340    -0.0030     1.2260 ca         1 D98      -0.105900
     11 C11          5.6370    -0.9290     0.4480 ca         1 D98      -0.093000
     12 C12          4.2610    -0.9320     0.4480 ca         1 D98      -0.096500
     13 C13          7.8120    -0.0040     1.2310 cc         1 D98       0.504400
     14 N14          8.6010    -0.8630     0.5130 na         1 D98      -0.242300
     15 C15          9.9130    -0.5400     0.7880 ca         1 D98      -0.061200
     16 C16          9.8710     0.5390     1.6920 ca         1 D98       0.093400
     17 N17          8.5640     0.8220     1.9170 nd         1 D98      -0.576100
     18 C18         11.0640     1.0920     2.1580 ca         1 D98       0.035000
     19 C19         11.1360    -1.0470     0.3660 ca         1 D98      -0.088000
     20 C20         12.3010    -0.5020     0.8260 ca         1 D98      -0.132000
     21 C21         12.2770     0.5700     1.7250 ca         1 D98      -0.217900
     22 C22         13.5470     1.1500     2.2140 ce         1 D98       0.549800
     23 N24         14.7510     0.6350     1.7850 nz         1 D98      -0.800600
     24 N23         13.5280     2.1490     3.0500 n2         1 D98      -0.688100
     25 C25         -2.1760     0.0000     1.2090 ce         1 D98       0.540800
     26 N26         -2.8280     0.0010     0.0820 n2         1 D98      -0.675100
     27 N27         -2.8650     0.0010     2.4030 nz         1 D98      -0.801600
     28 OAE          2.0640    -0.0010    -1.1750 oh         1 D98      -0.493100
     29 H1          -0.5420    -0.0000    -0.9380 ha         1 D98       0.179000
     30 HAE          1.8280     0.7620    -1.6760 ho         1 D98       0.442000
     31 H4           1.9180    -0.0000     3.3600 ha         1 D98       0.166000
     32 H5          -0.5400     0.0010     3.3560 ha         1 D98       0.112000
     33 H8           3.7140     1.6440     2.5980 ha         1 D98       0.151500
     34 H12          3.7210    -1.6510    -0.1560 ha         1 D98       0.151500
     35 H9           6.1730     1.6440     2.6060 ha         1 D98       0.151500
     36 H11          6.1790    -1.6500    -0.1520 ha         1 D98       0.151500
     37 H14          8.2870    -1.6690     0.0100 hn         1 D98       0.321700
     38 H19         11.1660    -1.8770    -0.3300 ha         1 D98       0.154000
     39 H18         11.0450     1.9220     2.8540 ha         1 D98       0.182000
     40 H20         13.2510    -0.9040     0.4920 ha         1 D98       0.111000
     41 H23         14.3860     2.5420     3.3820 hn         1 D98       0.434400
     42 H241        14.8140     0.7190     0.7900 hn         1 D98       0.465467
     43 H242        14.8110    -0.3300     2.0430 hn         1 D98       0.465467
     44 H26         -3.8290     0.0010     0.0820 hn         1 D98       0.438400
     45 H271        -2.6230     0.8180     2.9280 hn         1 D98       0.467133
     46 H272        -3.8490     0.0010     2.2210 hn         1 D98       0.467133
     47 H243        15.5020     1.1390     2.2130 hn         1 D98       0.465467
     48 H273        -2.6200    -0.8140     2.9300 hn         1 D98       0.467133
@<TRIPOS>BOND
     1     1     2 ar
     2     1     6 ar
     3     2     3 ar
     4     2    28 1
     5     3     4 ar
     6     3     7 1
     7     4     5 ar
     8     5     6 ar
     9     6    25 1
    10     7     8 ar
    11     7    12 ar
    12     8     9 ar
    13     9    10 ar
    14    10    11 ar
    15    10    13 1
    16    11    12 ar
    17    13    14 1
    18    13    17 2
    19    14    15 1
    20    15    16 ar
    21    15    19 ar
    22    16    17 1
    23    16    18 ar
    24    18    21 ar
    25    19    20 ar
    26    20    21 ar
    27    21    22 1
    28    22    24 2
    29    22    23 1
    30    25    26 2
    31    25    27 1
    32     1    29 1
    33    28    30 1
    34     4    31 1
    35     5    32 1
    36     8    33 1
    37    12    34 1
    38     9    35 1
    39    11    36 1
    40    14    37 1
    41    19    38 1
    42    18    39 1
    43    20    40 1
    44    24    41 1
    45    23    42 1
    46    23    43 1
    47    26    44 1
    48    27    45 1
    49    27    46 1
    50    47    23 1
    51    48    27 1
@<TRIPOS>SUBSTRUCTURE
     1 D98         1 TEMP              0 ****  ****    0 ROOT
