@<TRIPOS>MOLECULE
D98
   48    51     1     0     0
SMALL
bcc


@<TRIPOS>ATOM
      1 C1           0.0000     0.0000     0.0000 ca         1 D98      -0.122000
      2 C2           1.3830     0.0000     0.0000 ca         1 D98       0.173100
      3 C3           2.0800     0.0000     1.2140 cp         1 D98      -0.004000
      4 C4           1.3780    -0.0000     2.4200 ca         1 D98      -0.039000
      5 C5           0.0030     0.0010     2.4180 ca         1 D98      -0.113000
      6 C6          -0.6970     0.0000     1.2090 ca         1 D98      -0.200900
      7 C7           3.5610    -0.0010     1.2190 cp         1 D98      -0.051000
      8 C8           4.2570     0.9250     1.9970 ca         1 D98      -0.068000
      9 C9           5.6330     0.9250     2.0010 ca         1 D98      -0.070000
     10 C10          6.3340    -0.0030     1.2260 ca         1 D98      -0.107900
     11 C11          5.6370    -0.9290     0.4480 ca         1 D98      -0.070000
     12 C12          4.2610    -0.9320     0.4480 ca         1 D98      -0.068000
     13 C13          7.8120    -0.0040     1.2310 cc         1 D98       0.298400
     14 N14          8.6010    -0.8630     0.5130 na         1 D98       0.298700
     15 C15          9.9130    -0.5400     0.7880 ca         1 D98      -0.252200
     16 C16          9.8710     0.5390     1.6920 ca         1 D98       0.070400
     17 N17          8.5640     0.8220     1.9170 nd         1 D98      -0.494100
     18 C18         11.0640     1.0920     2.1580 ca         1 D98       0.032000
     19 C19         11.1360    -1.0470     0.3660 ca         1 D98      -0.026000
     20 C20         12.3010    -0.5020     0.8260 ca         1 D98      -0.111000
     21 C21         12.2770     0.5700     1.7250 ca         1 D98      -0.245900
     22 C22         13.5470     1.1500     2.2140 ce         1 D98       0.218800
     23 N24         14.7510     0.6350     1.7850 nz         1 D98       0.190400
     24 N23         13.5280     2.1490     3.0500 n2         1 D98      -0.495100
     25 C25         -2.1760     0.0000     1.2090 ce         1 D98       0.207800
     26 N26         -2.8280     0.0010     0.0820 n2         1 D98      -0.476100
     27 N27         -2.8650     0.0010     2.4030 nz         1 D98       0.190400
     28 OAE          2.0640    -0.0010    -1.1750 oh         1 D98      -0.475100
     29 H1          -0.5420    -0.0000    -0.9380 ha         1 D98       0.122000
     30 HAE          1.8280     0.7620    -1.6760 ho         1 D98       0.422000
     31 H4           1.9180    -0.0000     3.3600 ha         1 D98       0.132000
     32 H5          -0.5400     0.0010     3.3560 ha         1 D98       0.090000
     33 H8           3.7140     1.6450     2.5980 ha         1 D98       0.119000
     34 H12          3.7210    -1.6510    -0.1560 ha         1 D98       0.119000
     35 H9           6.1730     1.6440     2.6060 ha         1 D98       0.119000
     36 H11          6.1790    -1.6500    -0.1520 ha         1 D98       0.119000
     37 H14          8.2870    -1.6690     0.0100 hn         1 D98       0.145700
     38 H19         11.1660    -1.8770    -0.3300 ha         1 D98       0.120000
     39 H18         11.0450     1.9220     2.8540 ha         1 D98       0.117000
     40 H20         13.2510    -0.9040     0.4920 ha         1 D98       0.088000
     41 H23         12.6540     2.5240     3.3620 hn         1 D98       0.381400
     42 H241        14.8110    -0.3300     2.0430 hn         1 D98       0.222133
     43 H242        14.8140     0.7190     0.7900 hn         1 D98       0.222133
     44 H26         -2.3290     0.0000    -0.7860 hn         1 D98       0.380400
     45 H271        -2.6230    -0.8160     2.9280 hn         1 D98       0.223133
     46 H272        -3.8490     0.0010     2.2210 hn         1 D98       0.223133
     47 H243        15.5020     1.1400     2.2130 hn         1 D98       0.222133
     48 H273        -2.6260     0.8200     2.9260 hn         1 D98       0.223133
@<TRIPOS>BOND
     1     1     2 ar  
     2     1     6 ar  
     3     1    29 1   
     4     2     3 ar  
     5     2    28 1   
     6     3     4 ar  
     7     3     7 1   
     8     4     5 ar  
     9     4    31 1   
    10     5     6 ar  
    11     5    32 1   
    12     6    25 1   
    13     7     8 ar  
    14     7    12 ar  
    15     8     9 ar  
    16     8    33 1   
    17     9    10 ar  
    18     9    35 1   
    19    10    11 ar  
    20    10    13 1   
    21    11    12 ar  
    22    11    36 1   
    23    12    34 1   
    24    13    14 1   
    25    13    17 2   
    26    14    15 1   
    27    14    37 1   
    28    15    16 ar  
    29    15    19 ar  
    30    16    17 1   
    31    16    18 ar  
    32    18    21 ar  
    33    18    39 1   
    34    19    20 ar  
    35    19    38 1   
    36    20    21 ar  
    37    20    40 1   
    38    21    22 1   
    39    22    23 1   
    40    22    24 2   
    41    23    42 1   
    42    23    43 1   
    43    23    47 1   
    44    24    41 1   
    45    25    26 2   
    46    25    27 1   
    47    26    44 1   
    48    27    45 1   
    49    27    46 1   
    50    27    48 1   
    51    28    30 1   
@<TRIPOS>SUBSTRUCTURE
     1 D98         1 TEMP              0 ****  ****    0 ROOT
