@<TRIPOS>MOLECULE
molecule
   70    72     1     0     0
SMALL
bcc


@<TRIPOS>ATOM
      1 C1           0.0000     0.0000     0.0000 ca         1 D99       0.090600
      2 N1          -0.7010    -0.0000    -1.2120 n          1 D99      -0.410000
      3 O1          -2.6680     1.1560     1.9270 oh         1 D99      -0.603800
      4 Cl1         -2.6070    -2.3700    -0.5880 cl         1 D99      -0.084400
      5 C2           1.3880     0.0000     0.0000 ca         1 D99      -0.111000
      6 N2          -2.0090    -3.5240    -6.0940 n          1 D99      -0.476800
      7 O2          -0.0540    -2.0740    -1.6650 o          1 D99      -0.594100
      8 Cl2          2.2550     0.0010     3.8980 cl         1 D99      -0.121400
      9 C3           2.0780     0.0000     1.1980 ca         1 D99      -0.111000
     10 O3          -2.4510    -1.3780    -5.7440 o          1 D99      -0.634100
     11 C4           1.3860     0.0010     2.3950 ca         1 D99       0.016400
     12 O4          -2.5010    -5.2430   -10.3250 o          1 D99      -0.844800
     13 C5           0.0020     0.0010     2.3980 ca         1 D99      -0.085000
     14 O5          -2.9550    -3.0800   -10.3520 o          1 D99      -0.844800
     15 C6          -0.6920     0.0070     1.2040 ca         1 D99      -0.080300
     16 C7          -2.1990     0.0150     1.2080 c3         1 D99       0.236700
     17 C8          -2.7060    -1.2390     1.8710 ca         1 D99      -0.116300
     18 C9          -2.9210    -2.3820     1.1200 ca         1 D99       0.043400
     19 C10         -3.3850    -3.5340     1.7300 ca         1 D99      -0.120000
     20 C11         -3.6350    -3.5430     3.0890 ca         1 D99      -0.118000
     21 C12         -3.4210    -2.4000     3.8390 ca         1 D99      -0.137000
     22 C13         -2.9520    -1.2520     3.2320 ca         1 D99      -0.102000
     23 C14         -0.6520    -1.0790    -2.0180 c          1 D99       0.656100
     24 C15         -1.3390    -1.0500    -3.3590 c3         1 D99      -0.155400
     25 C16         -1.2630    -2.4370    -4.0010 c3         1 D99      -0.148400
     26 C17         -1.9500    -2.4070    -5.3420 c          1 D99       0.653100
     27 C18         -2.6760    -3.5110    -7.4030 c3         1 D99       0.121000
     28 C19         -1.7020    -4.0480    -8.4570 c3         1 D99      -0.186700
     29 C20         -1.1960    -5.4260    -8.0230 c3         1 D99      -0.060400
     30 C21         -0.4490    -5.3010    -6.6940 c3         1 D99      -0.105400
     31 C22         -1.4030    -4.7760    -5.6220 c3         1 D99       0.098000
     32 C23         -2.4110    -4.1680    -9.7820 c          1 D99       0.893600
     33 C24         -1.4880     1.1710    -1.6030 c3         1 D99       0.105000
     34 C25         -0.5750     2.1960    -2.2790 c3         1 D99      -0.091000
     35 C26          0.0790     1.5640    -3.5100 c3         1 D99      -0.088100
     36 C27         -1.4010     3.4110    -2.7090 c3         1 D99      -0.088100
     37 C28          0.5100     2.6390    -1.2970 c3         1 D99      -0.088100
     38 HO1         -3.5380     1.3740     1.6380 ho         1 D99       0.406000
     39 H2           1.9310    -0.0010    -0.9380 ha         1 D99       0.152000
     40 H3           3.1620    -0.0000     1.1980 ha         1 D99       0.143000
     41 H5          -0.5370     0.0060     3.3370 ha         1 D99       0.151000
     42 H7          -2.5620     0.0560     0.1880 h1         1 D99       0.067700
     43 H10         -3.5530    -4.4280     1.1430 ha         1 D99       0.147000
     44 H11         -4.0010    -4.4430     3.5660 ha         1 D99       0.133000
     45 H12         -3.6150    -2.4080     4.9050 ha         1 D99       0.130000
     46 H13         -2.7840    -0.3580     3.8200 ha         1 D99       0.147000
     47 H15         -2.3760    -0.7690    -3.2270 hc         1 D99       0.084700
     48 H15A        -0.8480    -0.3280    -4.0000 hc         1 D99       0.084700
     49 H16         -0.2250    -2.7180    -4.1330 hc         1 D99       0.069700
     50 H16A        -1.7540    -3.1590    -3.3590 hc         1 D99       0.069700
     51 H18         -3.5550    -4.1420    -7.3680 h1         1 D99       0.070200
     52 H18A        -2.9590    -2.4970    -7.6550 h1         1 D99       0.070200
     53 H19         -0.8630    -3.3700    -8.5510 hc         1 D99       0.048700
     54 H20         -0.5250    -5.8170    -8.7780 hc         1 D99       0.049700
     55 H20A        -2.0390    -6.0960    -7.9000 hc         1 D99       0.049700
     56 H21         -0.0740    -6.2730    -6.3980 hc         1 D99       0.032200
     57 H21A         0.3780    -4.6100    -6.8100 hc         1 D99       0.032200
     58 H22         -2.1800    -5.5090    -5.4410 h1         1 D99       0.036200
     59 H22A        -0.8520    -4.5900    -4.7080 h1         1 D99       0.036200
     60 H24         -1.9390     1.6140    -0.7230 h1         1 D99       0.060200
     61 H24A        -2.2670     0.8700    -2.2940 h1         1 D99       0.060200
     62 H26          0.5160     0.6110    -3.2370 hc         1 D99       0.039922
     63 H26A        -0.6700     1.4110    -4.2780 hc         1 D99       0.039922
     64 H26B         0.8530     2.2220    -3.8860 hc         1 D99       0.039922
     65 H27         -0.7790     4.0860    -3.2830 hc         1 D99       0.039922
     66 H27A        -2.2350     3.0830    -3.3170 hc         1 D99       0.039922
     67 H27B        -1.7750     3.9220    -1.8300 hc         1 D99       0.039922
     68 H28          0.1090     2.6360    -0.2900 hc         1 D99       0.039922
     69 H28A         0.8410     3.6390    -1.5510 hc         1 D99       0.039922
     70 H28B         1.3490     1.9560    -1.3540 hc         1 D99       0.039922
@<TRIPOS>BOND
     1     1     2 1
     2     1     5 ar
     3     1    15 ar
     4     2    23 1
     5     2    33 1
     6     3    16 1
     7     4    18 1
     8     5     9 ar
     9     6    26 1
    10     6    27 1
    11     6    31 1
    12     7    23 2
    13     8    11 1
    14     9    11 ar
    15    10    26 2
    16    11    13 ar
    17    12    32 1
    18    13    15 ar
    19    14    32 1
    20    15    16 1
    21    16    17 1
    22    17    18 ar
    23    17    22 ar
    24    18    19 ar
    25    19    20 ar
    26    20    21 ar
    27    21    22 ar
    28    23    24 1
    29    24    25 1
    30    25    26 1
    31    27    28 1
    32    28    29 1
    33    28    32 1
    34    29    30 1
    35    30    31 1
    36    33    34 1
    37    34    35 1
    38    34    36 1
    39    34    37 1
    40     3    38 1
    41     5    39 1
    42     9    40 1
    43    13    41 1
    44    16    42 1
    45    19    43 1
    46    20    44 1
    47    21    45 1
    48    22    46 1
    49    24    47 1
    50    24    48 1
    51    25    49 1
    52    25    50 1
    53    27    51 1
    54    27    52 1
    55    28    53 1
    56    29    54 1
    57    29    55 1
    58    30    56 1
    59    30    57 1
    60    31    58 1
    61    31    59 1
    62    33    60 1
    63    33    61 1
    64    35    62 1
    65    35    63 1
    66    35    64 1
    67    36    65 1
    68    36    66 1
    69    36    67 1
    70    37    68 1
    71    37    69 1
    72    37    70 1
@<TRIPOS>SUBSTRUCTURE
     1 D99         1 TEMP              0 ****  ****    0 ROOT
