@<TRIPOS>MOLECULE
molecule
   71    73     1     0     0
SMALL
bcc


@<TRIPOS>ATOM
      1 C1           0.0000     0.0000     0.0000 ca         1 D9A      -0.120300
      2 Cl1         -0.8580    -0.0330    -3.8980 cl         1 D9A      -0.128400
      3 C2           1.3880     0.0000     0.0000 ca         1 D9A       0.075600
      4 N3           2.0700     0.0000     1.2270 n          1 D9A      -0.400000
      5 C4           1.6860    -0.8850     2.1700 c          1 D9A       0.667500
      6 C5           0.6050    -1.8850     1.8620 c3         1 D9A       0.100100
      7 O6          -0.6820    -1.2700     1.9270 os         1 D9A      -0.345600
      8 C7          -0.7420     0.0200     1.3100 c3         1 D9A       0.232700
      9 C8           2.0850    -0.0030    -1.1980 ca         1 D9A      -0.149000
     10 C9           1.3920    -0.0130    -2.3940 ca         1 D9A      -0.110000
     11 C10          0.0080    -0.0180    -2.3920 ca         1 D9A       0.010400
     12 C11         -0.6890    -0.0120    -1.1960 ca         1 D9A      -0.078000
     13 C12         -2.1820     0.3890     1.0640 ca         1 D9A      -0.071300
     14 C13         -3.1350    -0.6020     0.9160 ca         1 D9A      -0.099000
     15 C14         -4.4570    -0.2660     0.6890 ca         1 D9A      -0.096000
     16 C15         -4.8320     1.0620     0.6100 ca         1 D9A      -0.218000
     17 C16         -3.8820     2.0600     0.7570 ca         1 D9A       0.099100
     18 C17         -2.5530     1.7220     0.9910 ca         1 D9A       0.076100
     19 O18         -4.2500     3.3670     0.6790 os         1 D9A      -0.326900
     20 C19         -5.6320     3.6390     0.4420 c3         1 D9A       0.130700
     21 O20         -1.6180     2.6990     1.1420 os         1 D9A      -0.342900
     22 C21         -0.9600     3.1550    -0.0410 c3         1 D9A       0.122700
     23 O22          2.2110    -0.8740     3.2630 o          1 D9A      -0.621500
     24 C23          3.1690     0.9360     1.4760 c3         1 D9A       0.121000
     25 C24          2.6140     2.2240     2.0840 c3         1 D9A      -0.091000
     26 C25          1.9080     1.9040     3.4040 c3         1 D9A      -0.086433
     27 C26          3.7630     3.2010     2.3450 c3         1 D9A      -0.086433
     28 C27          1.6160     2.8580     1.1130 c3         1 D9A      -0.086433
     29 C28          0.6710    -3.0270     2.8770 c3         1 D9A      -0.149400
     30 C29         -0.3280    -4.0910     2.5020 c          1 D9A       0.671100
     31 N30         -0.4480    -5.2000     3.2600 ns         1 D9A      -0.493900
     32 C31         -1.4190    -6.2340     2.8940 c3         1 D9A       0.027700
     33 C32         -0.9670    -7.5810     3.4640 c3         1 D9A      -0.178400
     34 C33          0.3240    -7.9960     2.8070 c          1 D9A       0.883600
     35 O34          0.9100    -9.1530     3.1530 o          1 D9A      -0.879800
     36 O35          0.8310    -7.2890     1.9700 o          1 D9A      -0.879800
     37 O36         -1.0240    -3.9490     1.5200 o          1 D9A      -0.653100
     38 C38         -2.7700    -5.8770     3.4600 c          1 D9A       0.887600
     39 O39         -2.9070    -4.8620     4.1020 o          1 D9A      -0.872300
     40 O40         -3.8190    -6.6860     3.2510 o          1 D9A      -0.872300
     41 H5           0.7590    -2.2790     0.8650 h1         1 D9A       0.077700
     42 H7          -0.2870     0.7510     1.9670 h1         1 D9A       0.069700
     43 H8           3.1680     0.0020    -1.1970 ha         1 D9A       0.138000
     44 H9           1.9330    -0.0350    -3.3320 ha         1 D9A       0.135000
     45 H11         -1.7690    -0.0960    -1.1980 ha         1 D9A       0.167000
     46 H13         -2.8410    -1.6440     0.9470 ha         1 D9A       0.206000
     47 H14         -5.2010    -1.0450     0.5770 ha         1 D9A       0.147000
     48 H15         -5.8710     1.3220     0.4470 ha         1 D9A       0.125000
     49 H19         -5.9330     3.1900    -0.4960 h1         1 D9A       0.033367
     50 H19A        -5.7870     4.7110     0.3960 h1         1 D9A       0.033367
     51 H19B        -6.2250     3.2240     1.2480 h1         1 D9A       0.033367
     52 H21         -0.3410     4.0120     0.1980 h1         1 D9A       0.033033
     53 H21A        -1.7000     3.4390    -0.7790 h1         1 D9A       0.033033
     54 H21B        -0.3390     2.3620    -0.4380 h1         1 D9A       0.033033
     55 H23          3.6690     1.1630     0.5420 h1         1 D9A       0.055200
     56 H23A         3.8760     0.4870     2.1640 h1         1 D9A       0.055200
     57 H25          1.6180     2.8270     3.8910 hc         1 D9A       0.037922
     58 H25A         2.5810     1.3510     4.0480 hc         1 D9A       0.037922
     59 H25B         1.0260     1.3070     3.2060 hc         1 D9A       0.037922
     60 H26          3.3750     4.0980     2.8120 hc         1 D9A       0.037922
     61 H26A         4.4900     2.7370     3.0010 hc         1 D9A       0.037922
     62 H26B         4.2370     3.4600     1.4060 hc         1 D9A       0.037922
     63 H27          0.6370     2.4170     1.2610 hc         1 D9A       0.037922
     64 H27A         1.5620     3.9250     1.2960 hc         1 D9A       0.037922
     65 H27B         1.9410     2.6820     0.0950 hc         1 D9A       0.037922
     66 H28          0.4390    -2.6460     3.8650 hc         1 D9A       0.072700
     67 H28A         1.6670    -3.4510     2.8790 hc         1 D9A       0.072700
     68 HN30         0.1500    -5.3320     4.0510 hn         1 D9A       0.295500
     69 H31         -1.4850    -6.3020     1.8150 h1         1 D9A       0.082700
     70 H32         -0.8150    -7.4880     4.5330 hc         1 D9A       0.044700
     71 H32A        -1.7280    -8.3280     3.2710 hc         1 D9A       0.044700
@<TRIPOS>BOND
     1     1     3 ar
     2     1     8 1
     3     1    12 ar
     4     2    11 1
     5     3     4 1
     6     3     9 ar
     7     4     5 1
     8     4    24 1
     9     5     6 1
    10     5    23 2
    11     6     7 1
    12     6    29 1
    13     7     8 1
    14     8    13 1
    15     9    10 ar
    16    10    11 ar
    17    11    12 ar
    18    13    14 ar
    19    13    18 ar
    20    14    15 ar
    21    15    16 ar
    22    16    17 ar
    23    17    18 ar
    24    17    19 1
    25    18    21 1
    26    19    20 1
    27    21    22 1
    28    24    25 1
    29    25    26 1
    30    25    27 1
    31    25    28 1
    32    29    30 1
    33    30    31 1
    34    30    37 2
    35    31    32 1
    36    32    33 1
    37    32    38 1
    38    33    34 1
    39    34    35 1
    40    34    36 1
    41    38    39 1
    42    38    40 1
    43     6    41 1
    44     8    42 1
    45     9    43 1
    46    10    44 1
    47    12    45 1
    48    14    46 1
    49    15    47 1
    50    16    48 1
    51    20    49 1
    52    20    50 1
    53    20    51 1
    54    22    52 1
    55    22    53 1
    56    22    54 1
    57    24    55 1
    58    24    56 1
    59    26    57 1
    60    26    58 1
    61    26    59 1
    62    27    60 1
    63    27    61 1
    64    27    62 1
    65    28    63 1
    66    28    64 1
    67    28    65 1
    68    29    66 1
    69    29    67 1
    70    31    68 1
    71    32    69 1
    72    33    70 1
    73    33    71 1
@<TRIPOS>SUBSTRUCTURE
     1 D9A         1 TEMP              0 ****  ****    0 ROOT
