@<TRIPOS>MOLECULE
D9A
   71    73     1     0     0
SMALL
bcc


@<TRIPOS>ATOM
      1 C1           0.0000     0.0000     0.0000 ca         1 D9A      -0.114300
      2 Cl1         -0.8580    -0.0330    -3.8980 cl         1 D9A      -0.050400
      3 C2           1.3880     0.0000     0.0000 ca         1 D9A      -0.053400
      4 N3           2.0700     0.0000     1.2270 n          1 D9A      -0.026000
      5 C4           1.6860    -0.8850     2.1700 c          1 D9A       0.582500
      6 C5           0.6050    -1.8850     1.8620 c3         1 D9A       0.130100
      7 O6          -0.6820    -1.2700     1.9270 os         1 D9A      -0.326600
      8 C7          -0.7420     0.0200     1.3100 c3         1 D9A       0.265700
      9 C8           2.0850    -0.0030    -1.1980 ca         1 D9A      -0.119000
     10 C9           1.3920    -0.0130    -2.3940 ca         1 D9A      -0.090000
     11 C10          0.0080    -0.0180    -2.3920 ca         1 D9A      -0.040600
     12 C11         -0.6890    -0.0120    -1.1960 ca         1 D9A      -0.063000
     13 C12         -2.1820     0.3890     1.0640 ca         1 D9A      -0.085300
     14 C13         -3.1350    -0.6020     0.9160 ca         1 D9A      -0.075000
     15 C14         -4.4570    -0.2660     0.6890 ca         1 D9A      -0.062000
     16 C15         -4.8320     1.0620     0.6100 ca         1 D9A      -0.209000
     17 C16         -3.8820     2.0600     0.7570 ca         1 D9A       0.104100
     18 C17         -2.5530     1.7220     0.9910 ca         1 D9A       0.074100
     19 O18         -4.2500     3.3670     0.6790 os         1 D9A      -0.303900
     20 C19         -5.6320     3.6390     0.4420 c3         1 D9A       0.240700
     21 O20         -1.6180     2.6990     1.1420 os         1 D9A      -0.320900
     22 C21         -0.9600     3.1550    -0.0410 c3         1 D9A       0.204700
     23 O22          2.2110    -0.8740     3.2630 o          1 D9A      -0.659500
     24 C23          3.1690     0.9360     1.4760 c3         1 D9A       0.048000
     25 C24          2.6140     2.2240     2.0840 c3         1 D9A      -0.085000
     26 C25          1.9080     1.9040     3.4040 c3         1 D9A      -0.018100
     27 C26          3.7630     3.2010     2.3450 c3         1 D9A      -0.018100
     28 C27          1.6160     2.8580     1.1130 c3         1 D9A      -0.018100
     29 C28          0.6710    -3.0270     2.8770 c3         1 D9A      -0.102400
     30 C29         -0.3280    -4.0910     2.5020 c          1 D9A       0.564100
     31 N30         -0.4480    -5.2000     3.2600 ns         1 D9A      -0.051900
     32 C31         -1.4190    -6.2340     2.8940 c3         1 D9A      -0.088300
     33 C32         -0.9670    -7.5810     3.4640 c3         1 D9A      -0.129400
     34 C33          0.3240    -7.9960     2.8070 c          1 D9A       0.976600
     35 O34          0.9100    -9.1530     3.1530 o          1 D9A      -0.929300
     36 O35          0.8310    -7.2890     1.9700 o          1 D9A      -0.929300
     37 O36         -1.0240    -3.9490     1.5200 o          1 D9A      -0.706100
     38 C38         -2.7700    -5.8770     3.4600 c          1 D9A       0.983600
     39 O39         -2.9070    -4.8620     4.1020 o          1 D9A      -0.921800
     40 O40         -3.8190    -6.6860     3.2510 o          1 D9A      -0.921800
     41 H5           0.7590    -2.2790     0.8650 h1         1 D9A       0.047700
     42 H7          -0.2870     0.7510     1.9670 h1         1 D9A       0.039700
     43 H8           3.1680     0.0020    -1.1970 ha         1 D9A       0.111000
     44 H9           1.9330    -0.0350    -3.3320 ha         1 D9A       0.106000
     45 H11         -1.7690    -0.0960    -1.1980 ha         1 D9A       0.141000
     46 H13         -2.8410    -1.6440     0.9470 ha         1 D9A       0.177000
     47 H14         -5.2010    -1.0450     0.5770 ha         1 D9A       0.115000
     48 H15         -5.8710     1.3220     0.4470 ha         1 D9A       0.111000
     49 H19         -5.9330     3.1900    -0.4960 h1         1 D9A      -0.008633
     50 H19A        -5.7870     4.7110     0.3960 h1         1 D9A      -0.008633
     51 H19B        -6.2250     3.2240     1.2480 h1         1 D9A      -0.008633
     52 H21         -0.3410     4.0120     0.1980 h1         1 D9A      -0.000633
     53 H21A        -1.7000     3.4390    -0.7790 h1         1 D9A      -0.000633
     54 H21B        -0.3390     2.3620    -0.4380 h1         1 D9A      -0.000633
     55 H23          3.6690     1.1630     0.5420 h1         1 D9A       0.031700
     56 H23A         3.8760     0.4870     2.1640 h1         1 D9A       0.031700
     57 H25          1.6180     2.8270     3.8910 hc         1 D9A       0.013700
     58 H25A         2.5810     1.3510     4.0480 hc         1 D9A       0.013700
     59 H25B         1.0260     1.3070     3.2060 hc         1 D9A       0.013700
     60 H26          3.3750     4.0980     2.8120 hc         1 D9A       0.013700
     61 H26A         4.4900     2.7370     3.0010 hc         1 D9A       0.013700
     62 H26B         4.2370     3.4600     1.4060 hc         1 D9A       0.013700
     63 H27          0.6370     2.4170     1.2610 hc         1 D9A       0.013700
     64 H27A         1.5620     3.9250     1.2960 hc         1 D9A       0.013700
     65 H27B         1.9410     2.6820     0.0950 hc         1 D9A       0.013700
     66 H28          0.4390    -2.6460     3.8650 hc         1 D9A       0.039200
     67 H28A         1.6670    -3.4510     2.8790 hc         1 D9A       0.039200
     68 HN30         0.1500    -5.3320     4.0510 hn         1 D9A       0.145500
     69 H31         -1.4850    -6.3020     1.8150 h1         1 D9A       0.066700
     70 H32         -0.8150    -7.4880     4.5330 hc         1 D9A       0.022200
     71 H32A        -1.7280    -8.3280     3.2710 hc         1 D9A       0.022200
@<TRIPOS>BOND
     1     1     3 ar  
     2     1     8 1   
     3     1    12 ar  
     4     2    11 1   
     5     3     4 1   
     6     3     9 ar  
     7     4     5 1   
     8     4    24 1   
     9     5     6 1   
    10     5    23 2   
    11     6     7 1   
    12     6    29 1   
    13     6    41 1   
    14     7     8 1   
    15     8    13 1   
    16     8    42 1   
    17     9    10 ar  
    18     9    43 1   
    19    10    11 ar  
    20    10    44 1   
    21    11    12 ar  
    22    12    45 1   
    23    13    14 ar  
    24    13    18 ar  
    25    14    15 ar  
    26    14    46 1   
    27    15    16 ar  
    28    15    47 1   
    29    16    17 ar  
    30    16    48 1   
    31    17    18 ar  
    32    17    19 1   
    33    18    21 1   
    34    19    20 1   
    35    20    49 1   
    36    20    50 1   
    37    20    51 1   
    38    21    22 1   
    39    22    52 1   
    40    22    53 1   
    41    22    54 1   
    42    24    25 1   
    43    24    55 1   
    44    24    56 1   
    45    25    26 1   
    46    25    27 1   
    47    25    28 1   
    48    26    57 1   
    49    26    58 1   
    50    26    59 1   
    51    27    60 1   
    52    27    61 1   
    53    27    62 1   
    54    28    63 1   
    55    28    64 1   
    56    28    65 1   
    57    29    30 1   
    58    29    66 1   
    59    29    67 1   
    60    30    31 1   
    61    30    37 2   
    62    31    32 1   
    63    31    68 1   
    64    32    33 1   
    65    32    38 1   
    66    32    69 1   
    67    33    34 1   
    68    33    70 1   
    69    33    71 1   
    70    34    35 1   
    71    34    36 1   
    72    38    39 1   
    73    38    40 1   
@<TRIPOS>SUBSTRUCTURE
     1 D9A         1 TEMP              0 ****  ****    0 ROOT
