@<TRIPOS>MOLECULE
molecule
   46    48     1     0     0
SMALL
bcc


@<TRIPOS>ATOM
      1 C01          0.0000     0.0000     0.0000 c3         1 D9B       0.149100
      2 C03          1.9950     0.0000     1.3720 c3         1 D9B       0.149100
      3 C04          1.9950    -1.1380    -0.7650 c3         1 D9B       0.137800
      4 C05          1.6320    -0.9720    -2.2420 c3         1 D9B       0.129000
      5 C07          3.3700    -2.1830    -3.5870 c          1 D9B       0.824600
      6 C10          2.3630    -4.0920    -4.0150 ca         1 D9B       0.036100
      7 C11          1.4920    -3.3060    -3.2610 ca         1 D9B      -0.004400
      8 C12          0.2380    -3.7890    -2.9220 ca         1 D9B      -0.128000
      9 C13         -0.1470    -5.0550    -3.3360 ca         1 D9B       0.073600
     10 C15         -2.4590    -4.7060    -2.8980 c          1 D9B       0.695300
     11 C17         -3.7650    -5.2040    -2.4260 cc         1 D9B      -0.286200
     12 C18         -4.8400    -4.3450    -2.3230 cd         1 D9B       0.085600
     13 C21         -6.2070    -6.0850    -1.5540 c          1 D9B       0.680700
     14 C23         -5.1400    -6.9990    -1.6490 cd         1 D9B      -0.257200
     15 C24         -3.9250    -6.5670    -2.0810 cc         1 D9B      -0.039000
     16 C25          0.7230    -5.8360    -4.0900 ca         1 D9B      -0.163000
     17 C26          1.9750    -5.3590    -4.4220 ca         1 D9B      -0.075000
     18 N02          1.4700     0.0000     0.0000 n3         1 D9B      -0.729600
     19 N06          2.1560    -2.1070    -3.0050 n          1 D9B      -0.379000
     20 N19         -6.0340    -4.7950    -1.8920 n          1 D9B      -0.308000
     21 O08          4.2160    -1.3110    -3.5630 o          1 D9B      -0.598500
     22 O09          3.5010    -3.3740    -4.1920 os         1 D9B      -0.266200
     23 O16         -2.3280    -3.5350    -3.1970 o          1 D9B      -0.610100
     24 O22         -7.2990    -6.4680    -1.1670 o          1 D9B      -0.636500
     25 H012        -0.3610     0.4100    -0.9360 h1         1 D9B       0.034200
     26 H011        -0.3610    -1.0150     0.1130 h1         1 D9B       0.034200
     27 H013        -0.3610     0.6050     0.8230 h1         1 D9B       0.034200
     28 H033         3.0770     0.0410     1.3440 h1         1 D9B       0.034200
     29 H032         1.6810    -0.9040     1.8790 h1         1 D9B       0.034200
     30 H031         1.6140     0.8630     1.9050 h1         1 D9B       0.034200
     31 H042         1.5630    -2.0570    -0.3880 h1         1 D9B       0.045700
     32 H041         3.0730    -1.1770    -0.6600 h1         1 D9B       0.045700
     33 H051         2.0640    -0.0530    -2.6190 h1         1 D9B       0.078200
     34 H052         0.5540    -0.9330    -2.3470 h1         1 D9B       0.078200
     35 H121        -0.4380    -3.1800    -2.3350 ha         1 D9B       0.167000
     36 H181        -4.7230    -3.3020    -2.5900 h4         1 D9B       0.183000
     37 H202        -7.9670    -4.2050    -2.4320 h1         1 D9B       0.063033
     38 H201        -6.8450    -2.8780    -2.1040 h1         1 D9B       0.063033
     39 H203        -7.5070    -3.8260    -0.7660 h1         1 D9B       0.063033
     40 H231        -5.2850    -8.0370    -1.3770 ha         1 D9B       0.170000
     41 H241        -3.0930    -7.2560    -2.1600 ha         1 D9B       0.131000
     42 H251         0.4190    -6.8240    -4.4120 ha         1 D9B       0.141000
     43 H261         2.6490    -5.9700    -5.0090 ha         1 D9B       0.151000
     44 H141        -1.5470    -6.5310    -2.8640 hn         1 D9B       0.329500
     45 N14         -1.4120    -5.5480    -2.9960 ns         1 D9B      -0.471100
     46 C20         -7.1620    -3.8660    -1.7920 c3         1 D9B       0.077300
@<TRIPOS>BOND
     1    15    14 2
     2    15    11 1
     3    23    10 2
     4    14    13 1
     5    10    11 1
     6    10    45 1
     7    11    12 2
     8    45     9 1
     9     9     8 ar
    10     9    16 ar
    11     8     7 ar
    12     4    19 1
    13     4     3 1
    14    13    24 2
    15    13    20 1
    16     7    19 1
    17     7     6 ar
    18    16    17 ar
    19    19     5 1
    20     6    17 ar
    21     6    22 1
    22    12    20 1
    23     5    21 2
    24     5    22 1
    25    20    46 1
    26     1    18 1
    27    18     3 1
    28    18     2 1
    29     1    25 1
    30     1    26 1
    31     1    27 1
    32     2    28 1
    33     2    29 1
    34     2    30 1
    35     3    31 1
    36     3    32 1
    37     4    33 1
    38     4    34 1
    39     8    35 1
    40    12    36 1
    41    46    37 1
    42    46    38 1
    43    46    39 1
    44    14    40 1
    45    15    41 1
    46    16    42 1
    47    17    43 1
    48    45    44 1
@<TRIPOS>SUBSTRUCTURE
     1 D9B         1 TEMP              0 ****  ****    0 ROOT
