@<TRIPOS>MOLECULE
molecule
   52    51     1     0     0
SMALL
bcc


@<TRIPOS>ATOM
      1 CAC          0.0000     0.0000     0.0000 c3         1 D9G      -0.092100
      2 CAD          1.5300     0.0000     0.0000 c3         1 D9G      -0.084400
      3 CAE          2.0400     0.0000     1.4420 c3         1 D9G      -0.081400
      4 CAF          3.5710     0.0010     1.4410 c3         1 D9G      -0.082400
      5 CAG          4.0810     0.0010     2.8840 c3         1 D9G      -0.081400
      6 CAH          5.6110     0.0020     2.8840 c3         1 D9G      -0.081400
      7 CAI          6.1210     0.0020     4.3260 c3         1 D9G      -0.081400
      8 CAJ          7.6510     0.0020     4.3260 c3         1 D9G      -0.081400
      9 CAK          8.1610     0.0030     5.7680 c3         1 D9G      -0.080400
     10 CAL          9.6920     0.0030     5.7670 c3         1 D9G      -0.079400
     11 CAM         10.2020     0.0030     7.2100 c3         1 D9G      -0.108400
     12 CAN         11.7320     0.0040     7.2100 c3         1 D9G       0.099800
     13 NAO         12.2220     0.0040     8.5940 n4         1 D9G      -0.539800
     14 CAS         11.7330     1.2030     9.2870 c3         1 D9G       0.093600
     15 CAA         11.7330    -1.1950     9.2870 c3         1 D9G       0.093600
     16 CAP         13.6910     0.0040     8.5940 c3         1 D9G      -0.045200
     17 CAQ         14.1940    -0.0560    10.0140 c          1 D9G       0.903600
     18 OAB         15.3890    -0.1680    10.2330 o          1 D9G      -0.781300
     19 OAR         13.4070     0.0060    10.9420 o          1 D9G      -0.781300
     20 HAC1        -0.3610     0.8820     0.5150 hc         1 D9G       0.032700
     21 HAC2        -0.3610    -0.8870     0.5060 hc         1 D9G       0.032700
     22 HAC3        -0.3610     0.0060    -1.0210 hc         1 D9G       0.032700
     23 HAD1         1.8910    -0.8840    -0.5110 hc         1 D9G       0.039700
     24 HAD2         1.8910     0.8840    -0.5110 hc         1 D9G       0.039700
     25 HAE1         1.6790     0.8840     1.9530 hc         1 D9G       0.041700
     26 HAE2         1.6800    -0.8850     1.9530 hc         1 D9G       0.041700
     27 HAF1         3.9320    -0.8830     0.9300 hc         1 D9G       0.041700
     28 HAF2         3.9310     0.8860     0.9310 hc         1 D9G       0.041700
     29 HAG1         3.7190     0.8850     3.3950 hc         1 D9G       0.041700
     30 HAG2         3.7210    -0.8840     3.3940 hc         1 D9G       0.041700
     31 HAH1         5.9730    -0.8820     2.3730 hc         1 D9G       0.041700
     32 HAH2         5.9710     0.8870     2.3730 hc         1 D9G       0.041700
     33 HAI1         5.7600     0.8860     4.8370 hc         1 D9G       0.042700
     34 HAI2         5.7600    -0.8830     4.8370 hc         1 D9G       0.042700
     35 HAJ1         8.0120    -0.8830     3.8160 hc         1 D9G       0.043700
     36 HAJ2         8.0120     0.8860     3.8150 hc         1 D9G       0.043700
     37 HAK1         7.8000    -0.8810     6.2800 hc         1 D9G       0.045700
     38 HAK2         7.8010     0.8880     6.2780 hc         1 D9G       0.045700
     39 HAL1        10.0530    -0.8810     5.2560 hc         1 D9G       0.048700
     40 HAL2        10.0530     0.8880     5.2570 hc         1 D9G       0.048700
     41 HAM1         9.8410     0.8870     7.7200 hc         1 D9G       0.059700
     42 HAM2         9.8420    -0.8820     7.7200 hc         1 D9G       0.059700
     43 HAN1        12.0940    -0.8800     6.6990 hx         1 D9G       0.084700
     44 HAN2        12.0920     0.8890     6.6990 hx         1 D9G       0.084700
     45 HAS1        12.4270     1.4760    10.0720 hx         1 D9G       0.094033
     46 HAS2        10.7610     0.9990     9.7190 hx         1 D9G       0.094033
     47 HAS3        11.6490     2.0200     8.5790 hx         1 D9G       0.094033
     48 HAA1        12.4040    -1.4410    10.1010 hx         1 D9G       0.094033
     49 HAA2        11.6930    -2.0240     8.5900 hx         1 D9G       0.094033
     50 HAA3        10.7420    -1.0060     9.6800 hx         1 D9G       0.094033
     51 HAP1        14.0520     0.9100     8.1210 hx         1 D9G       0.082700
     52 HAP2        14.0520    -0.8570     8.0460 hx         1 D9G       0.082700
@<TRIPOS>BOND
     1     1     2 1
     2     1    20 1
     3     1    21 1
     4     1    22 1
     5     2     3 1
     6     2    23 1
     7     2    24 1
     8     3     4 1
     9     3    25 1
    10     3    26 1
    11     4     5 1
    12     4    27 1
    13     4    28 1
    14     5     6 1
    15     5    29 1
    16     5    30 1
    17     6     7 1
    18     6    31 1
    19     6    32 1
    20     7     8 1
    21     7    33 1
    22     7    34 1
    23     8     9 1
    24     8    35 1
    25     8    36 1
    26     9    10 1
    27     9    37 1
    28     9    38 1
    29    10    11 1
    30    10    39 1
    31    10    40 1
    32    11    12 1
    33    11    41 1
    34    11    42 1
    35    12    13 1
    36    12    43 1
    37    12    44 1
    38    13    14 1
    39    13    15 1
    40    13    16 1
    41    14    45 1
    42    14    46 1
    43    14    47 1
    44    15    48 1
    45    15    49 1
    46    15    50 1
    47    16    17 1
    48    16    51 1
    49    16    52 1
    50    17    18 1
    51    17    19 1
@<TRIPOS>SUBSTRUCTURE
     1 D9G         1 TEMP              0 ****  ****    0 ROOT
