@<TRIPOS>MOLECULE
molecule
   36    37     1     0     0
SMALL
bcc


@<TRIPOS>ATOM
      1 C1           0.0000     0.0000     0.0000 ca         1 D9H      -0.371500
      2 N1          -1.1230    -1.5820    -1.9520 nz         1 D9H      -0.805500
      3 O1          -2.1620     0.5440    -1.2510 o          1 D9H      -0.522800
      4 S1          -0.8790    -0.0000    -1.5260 sy         1 D9H       1.223200
      5 C2           1.3830     0.0000     0.0000 ca         1 D9H      -0.009000
      6 O2           0.0040     0.5450    -2.4980 o          1 D9H      -0.522800
      7 C3           2.0750     0.0000     1.1950 ca         1 D9H      -0.154000
      8 C4           1.3820     0.0010     2.3980 ca         1 D9H       0.274600
      9 C5          -0.0070     0.0010     2.3940 ca         1 D9H      -0.154000
     10 C6          -0.6940     0.0060     1.1960 ca         1 D9H      -0.009000
     11 N7           2.0790     0.0010     3.6090 nu         1 D9H      -0.748300
     12 C8           1.6010     0.7270     4.6830 ca         1 D9H       0.993900
     13 N9           2.2000     0.6400     5.8650 nb         1 D9H      -0.883000
     14 C10          1.7370     1.3400     6.8950 ca         1 D9H       1.013900
     15 N11          2.3560     1.2530     8.1250 nu         1 D9H      -0.858900
     16 N12          0.6750     2.1270     6.7390 nb         1 D9H      -0.847000
     17 C13          0.0810     2.2120     5.5590 ca         1 D9H       0.875000
     18 Cl13        -1.3050     3.2400     5.3590 cl         1 D9H      -0.080000
     19 N14          0.5420     1.5200     4.5310 nb         1 D9H      -0.891000
     20 C15          1.8450     2.0250     9.2590 c3         1 D9H       0.240800
     21 C16          2.7050     1.7490    10.4940 c3         1 D9H       0.120400
     22 O17          4.0290     2.2370    10.2710 oh         1 D9H      -0.611800
     23 HN1         -1.6550    -2.0400    -1.2390 hn         1 D9H       0.489800
     24 HN11         3.1490     0.6540     8.2450 hn         1 D9H       0.475800
     25 H2           1.9240    -0.0010    -0.9390 ha         1 D9H       0.156000
     26 H3           3.1590     0.0000     1.1930 ha         1 D9H       0.176500
     27 H5          -0.5520     0.0040     3.3310 ha         1 D9H       0.176500
     28 H15          0.8210     1.7360     9.4610 h1         1 D9H       0.070200
     29 H15A         1.8820     3.0820     9.0230 h1         1 D9H       0.070200
     30 H6          -1.7770     0.0060     1.1930 ha         1 D9H       0.156000
     31 H16          2.7400     0.6820    10.6780 h1         1 D9H       0.038200
     32 H16A         2.2760     2.2500    11.3530 h1         1 D9H       0.038200
     33 HN7          2.9140    -0.5420     3.7050 hn         1 D9H       0.486800
     34 HO17         4.4990     2.2590    11.0880 ho         1 D9H       0.415000
     35 HN1A        -0.2400    -2.0390    -2.0560 hn         1 D9H       0.489800
     36 H13         -1.6230    -1.6210    -2.8180 hn         1 D9H       0.489800
@<TRIPOS>BOND
     1    10     1 ar
     2     5     1 ar
     3     1     4 1
     4     2    23 1
     5     2     4 1
     6     2    35 1
     7     3     4 2
     8     4     6 2
     9     7     5 ar
    10     5    25 1
    11     8     7 ar
    12    26     7 1
    13    11     8 1
    14     8     9 ar
    15    27     9 1
    16     9    10 ar
    17    10    30 1
    18    12    11 1
    19    11    33 1
    20    13    12 ar
    21    19    12 ar
    22    14    13 ar
    23    15    14 1
    24    16    14 ar
    25    24    15 1
    26    20    15 1
    27    16    17 ar
    28    18    17 1
    29    17    19 ar
    30    21    20 1
    31    28    20 1
    32    20    29 1
    33    32    21 1
    34    31    21 1
    35    21    22 1
    36    34    22 1
    37    36     2 1
@<TRIPOS>SUBSTRUCTURE
     1 D9H         1 TEMP              0 ****  ****    0 ROOT
