@<TRIPOS>MOLECULE
D9K
   32    33     1     0     0
SMALL
bcc


@<TRIPOS>ATOM
      1 O10          0.0000     0.0000     0.0000 o          1 D9K      -0.579800
      2 C15          4.1490    -2.4480     5.6840 ca         1 D9K       0.342200
      3 C14          2.9720    -1.8140     5.3320 ca         1 D9K      -0.170300
      4 C12          2.6420     0.0000     0.0000 c3         1 D9K      -0.023600
      5 C02          5.1170    -1.9400     3.6570 ca         1 D9K       0.297600
      6 C03          3.9700    -1.2810     3.2320 ca         1 D9K      -0.046700
      7 N04          3.9190    -0.6920     1.9670 nu         1 D9K      -0.424600
      8 C05          2.7040     0.0000     1.5290 c3         1 D9K       0.161500
      9 C06          2.7240     1.4350     2.0500 c3         1 D9K      -0.073400
     10 C07          1.3700     2.1040     1.8290 c3         1 D9K       0.004600
     11 C08          1.1490     2.3560     0.3360 c3         1 D9K      -0.004600
     12 S09          1.0780     0.7580    -0.5310 s6         1 D9K       0.798000
     13 O11          1.1380     0.9970    -1.9300 o          1 D9K      -0.579800
     14 C13          2.8720    -1.2180     4.0860 ca         1 D9K      -0.167000
     15 N16          5.1720    -2.4900     4.8530 nb         1 D9K      -0.531000
     16 H2           2.1380    -1.7850     6.0230 ha         1 D9K       0.109000
     17 H3           3.4730     0.5720    -0.3950 h1         1 D9K       0.075700
     18 H4           2.6900    -1.0190    -0.3630 h1         1 D9K       0.075700
     19 H5           7.0780    -2.6340     3.2040 hc         1 D9K       0.011033
     20 H6           6.0190    -2.4550     1.7980 hc         1 D9K       0.011033
     21 H7           6.7060    -1.0220     2.5760 hc         1 D9K       0.011033
     22 H8           4.7060    -0.7570     1.3520 hn         1 D9K       0.302800
     23 H9           1.8330    -0.5110     1.9220 h1         1 D9K       0.062700
     24 H10          3.4880     1.9940     1.5230 hc         1 D9K       0.033200
     25 H11          2.9470     1.4260     3.1100 hc         1 D9K       0.033200
     26 H12          1.3480     3.0490     2.3580 hc         1 D9K       0.030700
     27 H13          0.5860     1.4580     2.2030 hc         1 D9K       0.030700
     28 H14          1.9690     2.9440    -0.0570 h1         1 D9K       0.071200
     29 H15          0.2140     2.8850     0.1940 h1         1 D9K       0.071200
     30 H16          1.9620    -0.7130     3.7840 ha         1 D9K       0.122000
     31 H1           4.2340    -2.9140     6.6590 h4         1 D9K      -0.018900
     32 C01          6.3140    -2.0180     2.7450 c3         1 D9K      -0.034400
@<TRIPOS>BOND
     1     1    12 2   
     2     2     3 ar  
     3     2    15 ar  
     4     2    31 1   
     5     3    14 ar  
     6     3    16 1   
     7     4     8 1   
     8     4    12 1   
     9     4    17 1   
    10     4    18 1   
    11     5     6 ar  
    12     5    15 ar  
    13     5    32 1   
    14     6     7 1   
    15     6    14 ar  
    16     7     8 1   
    17     7    22 1   
    18     8     9 1   
    19     8    23 1   
    20     9    10 1   
    21     9    24 1   
    22     9    25 1   
    23    10    11 1   
    24    10    26 1   
    25    10    27 1   
    26    11    12 1   
    27    11    28 1   
    28    11    29 1   
    29    12    13 2   
    30    14    30 1   
    31    19    32 1   
    32    20    32 1   
    33    21    32 1   
@<TRIPOS>SUBSTRUCTURE
     1 D9K         1 TEMP              0 ****  ****    0 ROOT
