@<TRIPOS>MOLECULE
molecule
   64    67     1     0     0
SMALL
bcc


@<TRIPOS>ATOM
      1 C1           0.0000     0.0000     0.0000 ca         1 D9N      -0.294300
      2 C2           1.3860     0.0000     0.0000 ca         1 D9N      -0.055000
      3 C3           3.1490    -1.2110     7.6920 ca         1 D9N      -0.076500
      4 C7          10.6880    -1.7880    -1.0490 ca         1 D9N      -0.164500
      5 C8          10.4390    -3.8400     0.1590 ca         1 D9N      -0.164500
      6 C9          12.0620    -1.9000    -0.9560 ca         1 D9N      -0.019500
      7 C10         11.8130    -3.9590     0.2420 ca         1 D9N      -0.019500
      8 C11          4.3140    -0.8990     0.5600 cc         1 D9N      -0.201000
      9 C12         -0.6780     0.0060     1.2040 ca         1 D9N       0.458200
     10 C13          4.2310     0.8660     2.0380 cc         1 D9N      -0.093100
     11 C14          2.0500     0.0000     1.2280 ca         1 D9N      -0.153300
     12 C15          3.5320    -0.0000     1.2850 cd         1 D9N      -0.045000
     13 C16          3.5480    -0.0030     8.2700 ca         1 D9N      -0.124600
     14 C19         12.6250    -2.9850    -0.3100 ca         1 D9N      -0.302500
     15 C20          1.2920     0.0000     2.4050 ca         1 D9N       0.664600
     16 C21          5.6330    -0.7600     0.7330 cd         1 D9N       0.082500
     17 C22          4.3980    -0.0040     9.4790 c          1 D9N       0.647700
     18 C24         16.3750    -4.2440    -1.6920 c3         1 D9N      -0.074100
     19 C27          1.0890    -0.0010     4.7720 c3         1 D9N       0.188700
     20 N29         -0.0280     0.0060     2.3520 nb         1 D9N      -0.772000
     21 C4           3.1420     1.2050     7.7000 ca         1 D9N      -0.076500
     22 C5           2.3570    -1.2020     6.5630 ca         1 D9N      -0.122000
     23 C6           2.3490     1.1980     6.5700 ca         1 D9N      -0.122000
     24 C17          9.8760    -2.7580    -0.4920 ca         1 D9N       0.044700
     25 C18          1.9530    -0.0020     6.0060 ca         1 D9N      -0.067300
     26 C23          7.9150    -1.3150     0.3690 c          1 D9N       0.689100
     27 C26          8.9710    -2.1620    -0.2950 c3         1 D9N      -0.146100
     28 C28         14.8570    -4.0530    -1.6780 c3         1 D9N      -0.208600
     29 N30          6.6110    -1.5450     0.1180 ns         1 D9N      -0.442100
     30 O31          4.7500    -1.0560     9.9730 o          1 D9N      -0.548000
     31 O32          8.2400    -0.4260     1.1270 o          1 D9N      -0.566100
     32 O33         14.8440    -1.7890    -0.2660 o          1 D9N      -0.617300
     33 O34         14.5860    -3.9150     0.9720 o          1 D9N      -0.617300
     34 O35          1.9190    -0.0010     3.6080 os         1 D9N      -0.429100
     35 O36          4.7800     1.1620    10.0340 os         1 D9N      -0.429900
     36 S37          5.9520     0.5600     1.8520 ss         1 D9N      -0.019800
     37 H1          -0.5470     0.0000    -0.9350 ha         1 D9N       0.140000
     38 H2           1.9410    -0.0050    -0.9300 ha         1 D9N       0.146000
     39 H3           3.4650    -2.1510     8.1280 ha         1 D9N       0.154500
     40 H4          10.2470    -0.9380    -1.5560 ha         1 D9N       0.140000
     41 H5           9.8020    -4.6010     0.5940 ha         1 D9N       0.140000
     42 H6          12.6980    -1.1390    -1.3900 ha         1 D9N       0.151500
     43 H7          12.2540    -4.8080     0.7500 ha         1 D9N       0.151500
     44 H8           3.8870    -1.6530    -0.0900 ha         1 D9N       0.144000
     45 H9          -1.7620     0.0080     1.2050 h4         1 D9N       0.024100
     46 H10          3.7990     1.6350     2.6670 h4         1 D9N       0.180000
     47 H11         16.8610    -3.2760    -1.6960 hc         1 D9N       0.051700
     48 H12         16.6770    -4.7960    -0.8100 hc         1 D9N       0.051700
     49 H13         16.6620    -4.7950    -2.5790 hc         1 D9N       0.051700
     50 H14          0.4640     0.8830     4.7700 h1         1 D9N       0.056200
     51 H15          0.4630    -0.8860     4.7700 h1         1 D9N       0.056200
     52 H16          3.4500     2.1450     8.1420 ha         1 D9N       0.154500
     53 H17          2.0470    -2.1380     6.1140 ha         1 D9N       0.140500
     54 H18          2.0330     2.1340     6.1260 ha         1 D9N       0.140500
     55 H19          6.5320     0.5610    10.9820 h1         1 D9N       0.049700
     56 H20          5.0850     0.5520    12.0000 h1         1 D9N       0.049700
     57 H21          5.8480     2.0860    11.5620 h1         1 D9N       0.049700
     58 H22          8.8890    -1.3740    -1.0340 hc         1 D9N       0.053200
     59 H23          8.0980    -2.8020    -0.3510 hc         1 D9N       0.053200
     60 H24         14.5550    -3.5010    -2.5600 h1         1 D9N       0.096700
     61 H25         14.3720    -5.0210    -1.6740 h1         1 D9N       0.096700
     62 H26          6.3440    -2.2780    -0.5080 hn         1 D9N       0.335500
     63 S38         14.3770    -3.1290    -0.1930 sy         1 D9N       1.195300
     64 C25          5.6140     1.0860    11.2200 c3         1 D9N       0.140700
@<TRIPOS>BOND
     1    30    17 2
     2    21    23 ar
     3    21    13 ar
     4    23    25 ar
     5    31    26 2
     6    36    10 1
     7    36    16 1
     8    17    13 1
     9    17    35 1
    10    13     3 ar
    11    25    19 1
    12    25    22 ar
    13    19    34 1
    14    10    12 2
    15    34    15 1
    16    26    27 1
    17    26    29 1
    18     3    22 ar
    19    35    64 1
    20    27    24 1
    21     5     7 ar
    22     5    24 ar
    23    16    29 1
    24    16     8 2
    25    12     8 1
    26    12    11 1
    27     7    14 ar
    28    24     4 ar
    29    15    11 ar
    30    15    20 ar
    31    11     2 ar
    32    20     9 ar
    33    18    28 1
    34    14     6 ar
    35    14    63 1
    36     4     6 ar
    37    28    63 1
    38    33    63 2
    39    63    32 2
    40     2     1 ar
    41     9     1 ar
    42     1    37 1
    43     2    38 1
    44     3    39 1
    45     4    40 1
    46     5    41 1
    47     6    42 1
    48     7    43 1
    49     8    44 1
    50     9    45 1
    51    10    46 1
    52    18    47 1
    53    18    48 1
    54    18    49 1
    55    19    50 1
    56    19    51 1
    57    21    52 1
    58    22    53 1
    59    23    54 1
    60    64    55 1
    61    64    56 1
    62    64    57 1
    63    27    58 1
    64    27    59 1
    65    28    60 1
    66    28    61 1
    67    29    62 1
@<TRIPOS>SUBSTRUCTURE
     1 D9N         1 TEMP              0 ****  ****    0 ROOT
