@<TRIPOS>MOLECULE
D9P
   56    60     1     0     0
SMALL
bcc


@<TRIPOS>ATOM
      1 O11          0.0000     0.0000     0.0000 o          1 D9P      -0.559100
      2 C11          1.2080     0.0000     0.0000 c          1 D9P       0.635700
      3 C10          1.9610     0.0000     1.3060 c3         1 D9P      -0.127400
      4 C9           0.9660     0.0010     2.4680 c3         1 D9P      -0.020400
      5 C8           1.7300     0.0020     3.7930 c3         1 D9P      -0.028400
      6 C7           0.7360     0.0030     4.9560 c3         1 D9P      -0.029400
      7 C2           1.5000     0.0040     6.2810 c3         1 D9P      -0.057400
      8 C4           0.5060     0.0040     7.4440 c3         1 D9P       0.009700
      9 C5           1.2510     0.0270     8.7930 c3         1 D9P       0.008700
     10 C6           2.7640     0.0430     8.5700 c3         1 D9P      -0.023100
     11 N1           0.8370    -1.2240     9.4450 ns         1 D9P      -0.216900
     12 N2          -0.2480    -1.2570     7.4790 ns         1 D9P      -0.219900
     13 C3          -0.0030    -1.8840     8.6380 c          1 D9P       0.617500
     14 O3          -0.5010    -2.9530     8.9310 o          1 D9P      -0.735500
     15 C1           1.9440    -0.0080    -1.2750 ca         1 D9P      -0.168600
     16 C16          1.2190    -0.1330    -2.5530 ca         1 D9P      -0.008000
     17 C15          2.0170    -0.1330    -3.7940 ca         1 D9P      -0.028000
     18 C17         -0.0860    -0.2410    -2.6180 ca         1 D9P      -0.111000
     19 C18         -0.7540    -0.3630    -3.9310 ca         1 D9P      -0.073000
     20 C19         -0.0400    -0.3630    -5.0320 ca         1 D9P      -0.041000
     21 C20          1.4280    -0.2400    -4.9530 ca         1 D9P      -0.007000
     22 C24         -0.6440    -0.4800    -6.3700 ca         1 D9P      -0.079000
     23 C25          0.1330    -0.4720    -7.4320 ca         1 D9P      -0.103000
     24 C26          1.5940    -0.3510    -7.3470 ca         1 D9P      -0.073000
     25 C21          2.2180    -0.2410    -6.1980 ca         1 D9P      -0.041000
     26 C22          3.6830    -0.1180    -6.1170 ca         1 D9P      -0.071000
     27 C23          4.2780    -0.0090    -4.9450 ca         1 D9P      -0.102000
     28 C14          3.4830    -0.0100    -3.7060 ca         1 D9P       0.006000
     29 C13          4.0440     0.0970    -2.5240 ca         1 D9P      -0.118000
     30 C12          3.2550     0.1030    -1.2860 ca         1 D9P      -0.038000
     31 H1           2.5830    -0.8850     1.3640 hc         1 D9P       0.037700
     32 H2           2.5840     0.8840     1.3630 hc         1 D9P       0.037700
     33 H3           0.3430     0.8860     2.4090 hc         1 D9P       0.028700
     34 H4           0.3430    -0.8830     2.4110 hc         1 D9P       0.028700
     35 H5           2.3530     0.8870     3.8500 hc         1 D9P       0.014200
     36 H6           2.3540    -0.8820     3.8510 hc         1 D9P       0.014200
     37 H7           0.1120     0.8870     4.8980 hc         1 D9P       0.018200
     38 H8           0.1130    -0.8820     4.8990 hc         1 D9P       0.018200
     39 H9           2.1230     0.8890     6.3370 hc         1 D9P       0.032700
     40 H10          2.1240    -0.8800     6.3380 hc         1 D9P       0.032700
     41 H11         -0.1720     0.8460     7.3720 h1         1 D9P       0.034700
     42 H12          0.9380     0.8810     9.3820 h1         1 D9P       0.031700
     43 H13          3.0570    -0.8420     8.0180 hc         1 D9P       0.016367
     44 H14          3.0370     0.9270     8.0070 hc         1 D9P       0.016367
     45 H15          3.2700     0.0550     9.5280 hc         1 D9P       0.016367
     46 H16          1.1370    -1.5330    10.3480 hn         1 D9P       0.210500
     47 H17         -0.8480    -1.5950     6.7520 hn         1 D9P       0.214500
     48 H18         -0.6740    -0.2590    -1.7080 ha         1 D9P       0.163000
     49 H19         -1.8320    -0.4530    -3.9840 ha         1 D9P       0.108000
     50 H20         -1.7180    -0.5720    -6.4790 ha         1 D9P       0.107000
     51 H21         -0.3240    -0.5580    -8.4110 ha         1 D9P       0.099000
     52 H22          2.1750    -0.3510    -8.2620 ha         1 D9P       0.102000
     53 H23          4.2740    -0.1180    -7.0250 ha         1 D9P       0.105000
     54 H24          5.3560     0.0820    -4.8940 ha         1 D9P       0.107000
     55 H25          5.1220     0.1920    -2.4600 ha         1 D9P       0.107000
     56 H26          3.7740     0.2040    -0.3410 ha         1 D9P       0.101000
@<TRIPOS>BOND
     1     1     2 2   
     2     2     3 1   
     3     2    15 1   
     4     3     4 1   
     5     3    31 1   
     6     3    32 1   
     7     4     5 1   
     8     4    33 1   
     9     4    34 1   
    10     5     6 1   
    11     5    35 1   
    12     5    36 1   
    13     6     7 1   
    14     6    37 1   
    15     6    38 1   
    16     7     8 1   
    17     7    39 1   
    18     7    40 1   
    19     8     9 1   
    20     8    12 1   
    21     8    41 1   
    22     9    10 1   
    23     9    11 1   
    24     9    42 1   
    25    10    43 1   
    26    10    44 1   
    27    10    45 1   
    28    11    13 1   
    29    11    46 1   
    30    12    13 1   
    31    12    47 1   
    32    13    14 2   
    33    15    16 ar  
    34    15    30 ar  
    35    16    17 ar  
    36    16    18 ar  
    37    17    21 ar  
    38    17    28 ar  
    39    18    19 ar  
    40    18    48 1   
    41    19    20 ar  
    42    19    49 1   
    43    20    21 ar  
    44    20    22 ar  
    45    21    25 ar  
    46    22    23 ar  
    47    22    50 1   
    48    23    24 ar  
    49    23    51 1   
    50    24    25 ar  
    51    24    52 1   
    52    25    26 ar  
    53    26    27 ar  
    54    26    53 1   
    55    27    28 ar  
    56    27    54 1   
    57    28    29 ar  
    58    29    30 ar  
    59    29    55 1   
    60    30    56 1   
@<TRIPOS>SUBSTRUCTURE
     1 D9P         1 TEMP              0 ****  ****    0 ROOT
