@<TRIPOS>MOLECULE
D9Q
   37    38     1     0     0
SMALL
bcc


@<TRIPOS>ATOM
      1 C13          0.0000     0.0000     0.0000 c3         1 D9Q       0.140800
      2 C15         -0.2750     1.3190    -2.0230 c3         1 D9Q       0.148300
      3 C17         -2.3580     0.3060    -2.8250 c3         1 D9Q      -0.028400
      4 C01          7.0850    -0.0070     4.7960 c3         1 D9Q       0.043300
      5 C03          5.1890    -0.0010     3.2780 cc         1 D9Q      -0.062400
      6 C04          3.8340    -0.0010     3.0200 cd         1 D9Q      -0.283200
      7 C05          2.9170     0.0000     4.0990 cd         1 D9Q      -0.012000
      8 C06          3.3980     0.0010     5.3720 cc         1 D9Q      -0.242200
      9 C07          4.7890    -0.0000     5.5870 c          1 D9Q       0.583700
     10 C09          3.3430    -0.0010     1.6290 c          1 D9Q       0.617300
     11 C12          1.5300     0.0000     0.0000 c3         1 D9Q       0.045000
     12 C16         -1.4560     1.5520    -2.9840 c3         1 D9Q      -0.028400
     13 C18         -1.9540    -0.2400    -1.4330 c3         1 D9Q       0.148300
     14 N02          5.6420    -0.0060     4.5450 n          1 D9Q       0.135000
     15 N11          2.0180     0.0000     1.3810 ns         1 D9Q      -0.198900
     16 N14         -0.4890     0.0000    -1.3860 n3         1 D9Q      -0.534600
     17 O08          5.2250     0.0010     6.7260 o          1 D9Q      -0.692500
     18 O10          4.1330    -0.0010     0.7050 o          1 D9Q      -0.662100
     19 H1          -0.3610    -0.8850     0.5100 h1         1 D9Q       0.009700
     20 H2          -0.3610     0.8840     0.5110 h1         1 D9Q       0.009700
     21 H3          -0.2570     2.0950    -1.2670 h1         1 D9Q       0.014450
     22 H4           0.6550     1.3130    -2.5780 h1         1 D9Q       0.014450
     23 H5          -2.1420    -0.4220    -3.5980 hc         1 D9Q       0.019950
     24 H6          -3.4030     0.5880    -2.8360 hc         1 D9Q       0.019950
     25 H7           7.3430    -0.8540     5.4210 h1         1 D9Q       0.029367
     26 H8           7.6160    -0.0780     3.8540 h1         1 D9Q       0.029367
     27 H9           7.3640     0.9110     5.2990 h1         1 D9Q       0.029367
     28 H10          5.8940    -0.0020     2.4550 h4         1 D9Q       0.153000
     29 H11          1.8500     0.0010     3.9150 ha         1 D9Q       0.103000
     30 H12          2.7160     0.0040     6.2130 ha         1 D9Q       0.138000
     31 H13          1.8910    -0.8850    -0.5110 h1         1 D9Q       0.035200
     32 H14          1.8910     0.8850    -0.5110 h1         1 D9Q       0.035200
     33 H15         -1.9990     2.4450    -2.7000 hc         1 D9Q       0.019950
     34 H16         -1.0990     1.6290    -4.0040 hc         1 D9Q       0.019950
     35 H17         -2.1680    -1.3000    -1.3630 h1         1 D9Q       0.014450
     36 H18         -2.4560     0.3120    -0.6480 h1         1 D9Q       0.014450
     37 H19          1.3670    -0.0100     2.1420 hn         1 D9Q       0.176500
@<TRIPOS>BOND
     1     1    11 1   
     2     1    16 1   
     3     1    19 1   
     4     1    20 1   
     5     2    12 1   
     6     2    16 1   
     7     2    21 1   
     8     2    22 1   
     9     3    12 1   
    10     3    13 1   
    11     3    23 1   
    12     3    24 1   
    13     4    14 1   
    14     4    25 1   
    15     4    26 1   
    16     4    27 1   
    17     5     6 2   
    18     5    14 1   
    19     5    28 1   
    20     6     7 1   
    21     6    10 1   
    22     7     8 2   
    23     7    29 1   
    24     8     9 1   
    25     8    30 1   
    26     9    14 1   
    27     9    17 2   
    28    10    15 1   
    29    10    18 2   
    30    11    15 1   
    31    11    31 1   
    32    11    32 1   
    33    12    33 1   
    34    12    34 1   
    35    13    16 1   
    36    13    35 1   
    37    13    36 1   
    38    15    37 1   
@<TRIPOS>SUBSTRUCTURE
     1 D9Q         1 TEMP              0 ****  ****    0 ROOT
