@<TRIPOS>MOLECULE
molecule
   41    42     1     0     0
SMALL
bcc


@<TRIPOS>ATOM
      1 C13          0.0000     0.0000     0.0000 c3         1 D9T       0.094200
      2 C15          1.5300     0.0000     0.0000 c3         1 D9T      -0.098400
      3 C17          1.5300     1.2490     2.1640 c3         1 D9T      -0.089400
      4 C01         -0.4570    -4.3430    -7.3570 c3         1 D9T       0.073300
      5 C03         -0.4250    -2.9670    -5.3560 cc         1 D9T       0.110600
      6 C04         -0.0760    -2.7340    -4.0420 cd         1 D9T      -0.309200
      7 C05          0.6610    -3.7120    -3.3320 cd         1 D9T      -0.055000
      8 C06          1.0070    -4.8640    -3.9650 cc         1 D9T      -0.240200
      9 C07          0.6290    -5.0580    -5.3070 c          1 D9T       0.677700
     10 C09         -0.4650    -1.4740    -3.3820 c          1 D9T       0.703300
     11 C12         -0.5100     0.0010    -1.4430 c3         1 D9T       0.101000
     12 C16          2.0390     0.0000     1.4420 c3         1 D9T      -0.094900
     13 C18          0.0000     1.2490     2.1640 c3         1 D9T      -0.094900
     14 C19         -0.5100     1.2490     0.7210 c3         1 D9T      -0.098400
     15 N02         -0.0700    -4.1150    -5.9620 n          1 D9T      -0.302000
     16 N11         -0.1220    -1.2500    -2.0980 ns         1 D9T      -0.624900
     17 N14         -0.4890    -1.2000     0.6920 nz         1 D9T      -0.811600
     18 O08          0.9380    -6.0890    -5.8800 o          1 D9T      -0.605500
     19 O10         -1.0980    -0.6360    -3.9960 o          1 D9T      -0.591100
     20 H1           1.8900     0.8860    -0.5090 hc         1 D9T       0.086950
     21 H2           1.8900    -0.8860    -0.5090 hc         1 D9T       0.086950
     22 H3           1.8900     1.2450     3.1860 hc         1 D9T       0.076200
     23 H4           1.8900     2.1330     1.6520 hc         1 D9T       0.076200
     24 H5           0.4310    -4.4920    -7.9580 h1         1 D9T       0.070700
     25 H6          -1.0860    -5.2230    -7.4170 h1         1 D9T       0.070700
     26 H7          -1.0030    -3.4830    -7.7250 h1         1 D9T       0.070700
     27 H8          -0.9880    -2.2210    -5.9040 h4         1 D9T       0.189000
     28 H9           0.9430    -3.5450    -2.3000 ha         1 D9T       0.105000
     29 H10          1.5710    -5.6260    -3.4410 ha         1 D9T       0.174000
     30 H11         -1.5900     0.0890    -1.4440 h1         1 D9T       0.091700
     31 H12         -0.0790     0.8380    -1.9780 h1         1 D9T       0.091700
     32 H13          1.6760    -0.8840     1.9520 hc         1 D9T       0.056200
     33 H14          3.1230     0.0020     1.4410 hc         1 D9T       0.056200
     34 H15         -0.3600     2.1340     2.6730 hc         1 D9T       0.056200
     35 H16         -0.3600     0.3620     2.6730 hc         1 D9T       0.056200
     36 H17         -1.5940     1.2470     0.7230 hc         1 D9T       0.086950
     37 H18         -0.1470     2.1330     0.2110 hc         1 D9T       0.086950
     38 H19          0.3990    -1.9390    -1.5920 hn         1 D9T       0.300500
     39 H20          0.1240    -1.9670     0.5030 hn         1 D9T       0.455133
     40 H21         -0.5160    -1.0290     1.6780 hn         1 D9T       0.455133
     41 H143        -1.4100    -1.4200     0.3670 hn         1 D9T       0.455133
@<TRIPOS>BOND
     1    19    10 2
     2    10    16 1
     3    10     6 1
     4    17     1 1
     5    11    16 1
     6    11     1 1
     7     6     5 2
     8     6     7 1
     9     5    15 1
    10     2     1 1
    11     2    12 1
    12     7     8 2
    13     1    14 1
    14    15     4 1
    15    15     9 1
    16     8     9 1
    17     9    18 2
    18    12     3 1
    19    14    13 1
    20     3    13 1
    21     2    20 1
    22     2    21 1
    23     3    22 1
    24     3    23 1
    25     4    24 1
    26     4    25 1
    27     4    26 1
    28     5    27 1
    29     7    28 1
    30     8    29 1
    31    11    30 1
    32    11    31 1
    33    12    32 1
    34    12    33 1
    35    13    34 1
    36    13    35 1
    37    14    36 1
    38    14    37 1
    39    16    38 1
    40    17    39 1
    41    17    40 1
    42    41    17 1
@<TRIPOS>SUBSTRUCTURE
     1 D9T         1 TEMP              0 ****  ****    0 ROOT
