@<TRIPOS>MOLECULE
D9W
   42    44     1     0     0
SMALL
bcc


@<TRIPOS>ATOM
      1 C2           0.0000     0.0000     0.0000 ca         1 D9W      -0.077200
      2 C3           1.3870     0.0000     0.0000 ca         1 D9W       0.416200
      3 C11          2.2530     0.0010     3.5500 c          1 D9W       0.484600
      4 C15          4.3580     0.1120     4.6540 ca         1 D9W      -0.065400
      5 C16          5.5840    -0.5320     4.7510 ca         1 D9W      -0.132000
      6 C18          6.3330    -0.4160     5.9060 ca         1 D9W      -0.112300
      7 C19          5.8630     0.3420     6.9630 ca         1 D9W      -0.114000
      8 C21          4.6420     0.9840     6.8680 ca         1 D9W      -0.057000
      9 C23          3.8890     0.8720     5.7170 ca         1 D9W      -0.081000
     10 C25          7.6640    -1.1160     6.0140 c3         1 D9W       0.123500
     11 C27          9.5040    -1.0050     4.4560 c2         1 D9W       0.060200
     12 C28         10.4800    -0.6020     5.5230 c3         1 D9W       0.184100
     13 Br1         -0.9560    -0.0090    -1.6320 br         1 D9W      -0.072100
     14 N5           2.0620     0.0000     1.1280 nb         1 D9W      -0.580000
     15 C6           1.4510     0.0010     2.3060 ca         1 D9W       0.301800
     16 C7           0.0600     0.0020     2.3820 ca         1 D9W      -0.135300
     17 C9          -0.6790     0.0000     1.2100 ca         1 D9W      -0.053000
     18 O12          1.6990     0.0020     4.6310 o          1 D9W      -0.622100
     19 N13          3.6000     0.0000     3.4830 ns         1 D9W      -0.027100
     20 N26          8.2630    -1.2240     4.6880 n2         1 D9W      -0.323900
     21 O31          9.9150    -0.8360     6.8130 os         1 D9W      -0.359600
     22 C32          8.5850    -0.3150     6.9370 c3         1 D9W       0.173400
     23 N35          9.9630    -1.1480     3.1720 nz         1 D9W       0.194400
     24 C38          7.4560    -2.5160     6.5950 c3         1 D9W       0.017900
     25 H1           1.9220    -0.0010    -0.9420 h4         1 D9W      -0.004900
     26 H2           5.9530    -1.1260     3.9240 ha         1 D9W       0.109000
     27 H3           6.4520     0.4310     7.8680 ha         1 D9W       0.112000
     28 H4           4.2770     1.5770     7.6980 ha         1 D9W       0.119000
     29 H5           2.9330     1.3760     5.6430 ha         1 D9W       0.151000
     30 H6          11.3870    -1.1850     5.4180 h1         1 D9W       0.037700
     31 H7          10.7100     0.4520     5.4190 h1         1 D9W       0.037700
     32 H8          -0.4370     0.0020     3.3450 ha         1 D9W       0.143000
     33 H9          -1.7620     0.0000     1.2370 ha         1 D9W       0.132000
     34 H10          4.0570    -0.0730     2.5960 hn         1 D9W       0.186500
     35 H11          8.5740     0.7280     6.6460 h1         1 D9W       0.049200
     36 H12          8.2490    -0.4160     7.9620 h1         1 D9W       0.049200
     37 H13         10.3980    -0.2960     2.8770 hn         1 D9W       0.216467
     38 H14         10.6300    -1.8930     3.1370 hn         1 D9W       0.216467
     39 H15          8.3960    -3.0530     6.5880 hc         1 D9W       0.029033
     40 H16          7.0940    -2.4340     7.6130 hc         1 D9W       0.029033
     41 H17          6.7290    -3.0510     5.9950 hc         1 D9W       0.029033
     42 H353         9.1940    -1.3490     2.5640 hn         1 D9W       0.216467
@<TRIPOS>BOND
     1     1     2 ar  
     2     1    13 1   
     3     1    17 ar  
     4     2    14 ar  
     5     2    25 1   
     6     3    15 1   
     7     3    18 2   
     8     3    19 1   
     9     4     5 ar  
    10     4     9 ar  
    11     4    19 1   
    12     5     6 ar  
    13     5    26 1   
    14     6     7 ar  
    15     6    10 1   
    16     7     8 ar  
    17     7    27 1   
    18     8     9 ar  
    19     8    28 1   
    20     9    29 1   
    21    10    20 1   
    22    10    22 1   
    23    10    24 1   
    24    11    12 1   
    25    11    20 2   
    26    11    23 1   
    27    12    21 1   
    28    12    30 1   
    29    12    31 1   
    30    14    15 ar  
    31    15    16 ar  
    32    16    17 ar  
    33    16    32 1   
    34    17    33 1   
    35    19    34 1   
    36    21    22 1   
    37    22    35 1   
    38    22    36 1   
    39    23    37 1   
    40    23    38 1   
    41    23    42 1   
    42    24    39 1   
    43    24    40 1   
    44    24    41 1   
@<TRIPOS>SUBSTRUCTURE
     1 D9W         1 TEMP              0 ****  ****    0 ROOT
