@<TRIPOS>MOLECULE
D9Z
   23    24     1     0     0
SMALL
bcc


@<TRIPOS>ATOM
      1 O2           0.0000     0.0000     0.0000 o          1 D9Z      -0.484800
      2 S1           1.4220     0.0000     0.0000 sy         1 D9Z       0.909800
      3 O1           2.1990     0.0000     1.1900 o          1 D9Z      -0.484800
      4 N3           1.8900    -1.3320    -0.8650 nz         1 D9Z      -0.110500
      5 C8           1.9180     1.4190    -0.9190 cc         1 D9Z       0.189300
      6 S2           1.6640     3.0480    -0.4500 ss         1 D9Z      -0.177800
      7 N2           2.5390     1.4010    -2.0530 nd         1 D9Z      -0.222000
      8 N1           2.8270     2.5090    -2.5870 nd         1 D9Z      -0.301000
      9 C7           2.4650     3.5780    -1.9300 cc         1 D9Z       0.601900
     10 C1           2.6910     4.9790    -2.3470 ca         1 D9Z      -0.183500
     11 C6           3.3410     5.2550    -3.5490 ca         1 D9Z      -0.019000
     12 C2           2.2480     6.0300    -1.5420 ca         1 D9Z      -0.042600
     13 C3           2.4620     7.3360    -1.9390 ca         1 D9Z      -0.088000
     14 C4           3.1130     7.6020    -3.1310 ca         1 D9Z      -0.029000
     15 C5           3.5490     6.5640    -3.9340 ca         1 D9Z      -0.095000
     16 Cl1          1.4310     5.6970    -0.0470 cl         1 D9Z       0.078600
     17 HN3          1.4470    -1.3200    -1.7630 hn         1 D9Z       0.316800
     18 HN3A         1.6220    -2.1610    -0.3730 hn         1 D9Z       0.316800
     19 H6           3.6830     4.4430    -4.1800 ha         1 D9Z       0.129000
     20 H3           2.1210     8.1530    -1.3150 ha         1 D9Z       0.131000
     21 H4           3.2780     8.6280    -3.4370 ha         1 D9Z       0.122000
     22 H5           4.0560     6.7790    -4.8670 ha         1 D9Z       0.125000
     23 H33          2.8840    -1.3200    -0.9840 hn         1 D9Z       0.316800
@<TRIPOS>BOND
     1     1     2 2   
     2     2     3 2   
     3     2     4 1   
     4     2     5 1   
     5     4    17 1   
     6     4    18 1   
     7     4    23 1   
     8     5     6 1   
     9     5     7 2   
    10     6     9 1   
    11     7     8 1   
    12     8     9 2   
    13     9    10 1   
    14    10    11 ar  
    15    10    12 ar  
    16    11    15 ar  
    17    11    19 1   
    18    12    13 ar  
    19    12    16 1   
    20    13    14 ar  
    21    13    20 1   
    22    14    15 ar  
    23    14    21 1   
    24    15    22 1   
@<TRIPOS>SUBSTRUCTURE
     1 D9Z         1 TEMP              0 ****  ****    0 ROOT
