@<TRIPOS>MOLECULE
molecule
   23    24     1     0     0
SMALL
bcc


@<TRIPOS>ATOM
      1 O2           0.0000     0.0000     0.0000 o          1 D9Z      -0.508300
      2 S1           1.4220     0.0000     0.0000 sy         1 D9Z       1.223800
      3 O1           2.1990     0.0000     1.1900 o          1 D9Z      -0.508300
      4 N3           1.8900    -1.3320    -0.8650 nz         1 D9Z      -0.802500
      5 C8           1.9180     1.4190    -0.9190 cc         1 D9Z       0.022300
      6 S2           1.6640     3.0480    -0.4500 ss         1 D9Z       0.012200
      7 N2           2.5390     1.4010    -2.0530 nd         1 D9Z      -0.274000
      8 N1           2.8270     2.5090    -2.5870 nd         1 D9Z      -0.319000
      9 C7           2.4650     3.5780    -1.9300 cc         1 D9Z       0.536900
     10 C1           2.6910     4.9790    -2.3470 ca         1 D9Z      -0.166500
     11 C6           3.3410     5.2550    -3.5490 ca         1 D9Z      -0.052000
     12 C2           2.2480     6.0300    -1.5420 ca         1 D9Z       0.037400
     13 C3           2.4620     7.3360    -1.9390 ca         1 D9Z      -0.110000
     14 C4           3.1130     7.6020    -3.1310 ca         1 D9Z      -0.069000
     15 C5           3.5490     6.5640    -3.9340 ca         1 D9Z      -0.122000
     16 Cl1          1.4310     5.6970    -0.0470 cl         1 D9Z      -0.056400
     17 HN3          1.4470    -1.3200    -1.7630 hn         1 D9Z       0.499467
     18 HN3A         1.6220    -2.1610    -0.3730 hn         1 D9Z       0.499467
     19 H6           3.6830     4.4430    -4.1800 ha         1 D9Z       0.167000
     20 H3           2.1210     8.1530    -1.3150 ha         1 D9Z       0.167000
     21 H4           3.2780     8.6280    -3.4370 ha         1 D9Z       0.161000
     22 H5           4.0560     6.7790    -4.8670 ha         1 D9Z       0.161000
     23 H33          2.8840    -1.3200    -0.9840 hn         1 D9Z       0.499467
@<TRIPOS>BOND
     1     1     2 2
     2     2     3 2
     3     2     4 1
     4     2     5 1
     5     5     6 1
     6     5     7 2
     7     6     9 1
     8     7     8 1
     9     8     9 2
    10     9    10 1
    11    10    11 ar
    12    10    12 ar
    13    11    15 ar
    14    12    13 ar
    15    12    16 1
    16    13    14 ar
    17    14    15 ar
    18     4    17 1
    19     4    18 1
    20    11    19 1
    21    13    20 1
    22    14    21 1
    23    15    22 1
    24    23     4 1
@<TRIPOS>SUBSTRUCTURE
     1 D9Z         1 TEMP              0 ****  ****    0 ROOT
