@<TRIPOS>MOLECULE
molecule
   15    15     1     0     0
SMALL
bcc


@<TRIPOS>ATOM
      1 N1           0.0000     0.0000     0.0000 nb         1 DA1      -0.671000
      2 C7           1.3230     0.0000     0.0000 ca         1 DA1       0.613200
      3 N2           2.0120    -0.0020    -1.2110 nv         1 DA1      -1.078500
      4 C2           2.0340     0.0000     1.1950 ca         1 DA1      -0.206300
      5 C3           1.3410     0.0010     2.3920 ca         1 DA1      -0.177000
      6 C5          -0.0530     0.0020     2.3520 ca         1 DA1       0.073300
      7 N3          -0.7960     0.0030     3.5390 nv         1 DA1      -0.920200
      8 C4          -0.6940    -0.0050     1.1220 ca         1 DA1       0.352200
      9 HN21         2.2470    -0.8690    -1.6510 hn         1 DA1       0.429800
     10 HN22         2.2480     0.8640    -1.6540 hn         1 DA1       0.429800
     11 H2           3.1170    -0.0000     1.1890 ha         1 DA1       0.141000
     12 H3           1.8680     0.0010     3.3380 ha         1 DA1       0.134000
     13 HN31        -1.7960     0.0010     3.5030 hn         1 DA1       0.430300
     14 HN32        -0.3270     0.0060     4.4230 hn         1 DA1       0.430300
     15 H4          -1.7770    -0.0050     1.0820 h4         1 DA1       0.018100
@<TRIPOS>BOND
     1     1     2 ar
     2     1     8 ar
     3     2     3 1
     4     2     4 ar
     5     3     9 1
     6     3    10 1
     7     4     5 ar
     8     4    11 1
     9     5     6 ar
    10     5    12 1
    11     6     7 1
    12     6     8 ar
    13     7    13 1
    14     7    14 1
    15     8    15 1
@<TRIPOS>SUBSTRUCTURE
     1 DA1         1 TEMP              0 ****  ****    0 ROOT
