@<TRIPOS>MOLECULE
DA3
   23    23     1     0     0
SMALL
bcc


@<TRIPOS>ATOM
      1 N1           0.0000     0.0000     0.0000 nz         1 DA3       0.080400
      2 C2           1.4690     0.0000     0.0000 c3         1 DA3      -0.199500
      3 C1           1.9710     0.0000     1.4200 c          1 DA3       0.959600
      4 O1           3.1440    -0.5810     1.7170 o          1 DA3      -0.832300
      5 O2           1.3190     0.5240     2.2910 o          1 DA3      -0.832300
      6 O3           2.0150     0.1370    -2.9040 os         1 DA3      -0.210300
      7 O4           2.5130     3.8500    -5.5350 o          1 DA3      -0.856300
      8 N2           2.2550     0.5830    -4.2250 n2         1 DA3      -0.353200
      9 C3           1.9780     1.2470    -0.7230 c3         1 DA3      -0.019400
     10 C4           1.4690     1.2470    -2.1640 c3         1 DA3       0.097100
     11 C5           2.0270     2.4570    -2.9500 c3         1 DA3      -0.108700
     12 C6           2.2790     1.8690    -4.3250 ce         1 DA3       0.322300
     13 C7           2.5130     2.6340    -5.5630 c          1 DA3       0.898300
     14 O5           2.7250     1.9890    -6.7260 o          1 DA3      -0.856300
     15 HN11        -0.3340    -0.5480     0.7680 hn         1 DA3       0.209800
     16 HN12        -0.3340    -0.3920    -0.8590 hn         1 DA3       0.209800
     17 H2           1.8300    -0.8850    -0.5100 hx         1 DA3       0.105700
     18 H31          3.0610     1.2480    -0.7230 hc         1 DA3       0.056700
     19 H32          1.6170     2.1320    -0.2130 hc         1 DA3       0.056700
     20 H4           0.3860     1.2340    -2.1980 h1         1 DA3      -0.019300
     21 H51          2.9520     2.8060    -2.5080 hc         1 DA3       0.041700
     22 H52          1.2920     3.2510    -3.0020 hc         1 DA3       0.041700
     23 H13         -0.3340     0.9380     0.1010 hn         1 DA3       0.209800
@<TRIPOS>BOND
     1     1     2 1   
     2     1    15 1   
     3     1    16 1   
     4     1    23 1   
     5     2     3 1   
     6     2     9 1   
     7     2    17 1   
     8     3     4 1   
     9     3     5 1   
    10     6     8 1   
    11     6    10 1   
    12     7    13 1   
    13     8    12 2   
    14     9    10 1   
    15     9    18 1   
    16     9    19 1   
    17    10    11 1   
    18    10    20 1   
    19    11    12 1   
    20    11    21 1   
    21    11    22 1   
    22    12    13 1   
    23    13    14 1   
@<TRIPOS>SUBSTRUCTURE
     1 DA3         1 TEMP              0 ****  ****    0 ROOT
