@<TRIPOS>MOLECULE
DA4
   20    20     1     0     0
SMALL
bcc


@<TRIPOS>ATOM
      1 N1           0.0000     0.0000     0.0000 nz         1 DA4      -0.618500
      2 S2           1.6560     0.0000     0.0000 sy         1 DA4       0.969200
      3 O3           2.0580     0.0000     1.3630 o          1 DA4      -0.472800
      4 O4           2.0580    -0.9980    -0.9280 o          1 DA4      -0.472800
      5 C5           2.1780     1.5430    -0.6710 ca         1 DA4      -0.212500
      6 C6           2.3810     2.6240     0.1620 ca         1 DA4      -0.016000
      7 C7           2.7940     3.8450    -0.3720 ca         1 DA4       0.083000
      8 C8           2.9990     3.9650    -1.7470 ca         1 DA4       0.011000
      9 C9           2.7920     2.8770    -2.5700 ca         1 DA4      -0.100000
     10 C10          2.3870     1.6680    -2.0330 ca         1 DA4       0.019000
     11 C11          3.0070     4.9700     0.4880 cg         1 DA4      -0.216000
     12 C12          3.1830     5.8800     1.2090 c1         1 DA4       0.007500
     13 HN1         -0.3340    -0.8190     0.4690 hn         1 DA4       0.447467
     14 HN1A        -0.3340     0.8150     0.4750 hn         1 DA4       0.447467
     15 H6           2.2040     2.5270     1.2270 ha         1 DA4       0.124000
     16 H8           3.3030     4.9160    -2.1680 ha         1 DA4       0.131000
     17 H9           2.9420     2.9700    -3.6390 ha         1 DA4       0.134000
     18 H10          2.2700     0.8060    -2.6800 ha         1 DA4       0.134000
     19 H12          3.3580     6.7260     1.8620 ha         1 DA4       0.151500
     20 H13         -0.3090     0.8150     0.4920 hn         1 DA4       0.447467
@<TRIPOS>BOND
     1     1     2 1   
     2     1    13 1   
     3     1    14 1   
     4     1    20 1   
     5     2     3 2   
     6     2     4 2   
     7     2     5 1   
     8     5     6 ar  
     9     5    10 ar  
    10     6     7 ar  
    11     6    15 1   
    12     7     8 ar  
    13     7    11 1   
    14     8     9 ar  
    15     8    16 1   
    16     9    10 ar  
    17     9    17 1   
    18    10    18 1   
    19    11    12 3   
    20    12    19 1   
@<TRIPOS>SUBSTRUCTURE
     1 DA4         1 TEMP              0 ****  ****    0 ROOT
