@<TRIPOS>MOLECULE
molecule
   45    47     1     0     0
SMALL
bcc


@<TRIPOS>ATOM
      1 C1           0.0000     0.0000     0.0000 ca         1 DA5      -0.146000
      2 C2           1.3600     0.0000     0.0000 ca         1 DA5      -0.035000
      3 C3           2.1030     0.0000     1.1720 ca         1 DA5      -0.018000
      4 C4           1.4920     0.0010     2.4170 ca         1 DA5      -0.135600
      5 C5          -2.6020     0.0020     4.9490 ca         1 DA5      -0.060900
      6 C6          -3.9610     0.0020     4.9840 ca         1 DA5      -0.003000
      7 C7          -4.7270     0.0020     3.8190 ca         1 DA5      -0.026000
      8 C8          -4.1510     0.0020     2.5890 ca         1 DA5      -0.153000
      9 C9          -2.1120     0.0010     1.2350 ca         1 DA5       0.024600
     10 N9          -2.8530     0.0010     0.0480 nz         1 DA5      -0.671000
     11 N10         -0.6090     0.0010     3.6390 na         1 DA5      -0.002100
     12 C11         -0.7150     0.0010     1.2130 ca         1 DA5      -0.040000
     13 C12          0.0270    -0.0050     2.4780 ca         1 DA5       0.089700
     14 C13         -2.7460     0.0010     2.4810 ca         1 DA5      -0.034000
     15 C14         -1.9380     0.0010     3.7030 ca         1 DA5       0.069700
     16 Br          -1.6080     0.0030     6.5570 br         1 DA5       0.064900
     17 CD1          2.2960     0.0000     3.6500 c          1 DA5       0.669700
     18 OD1          1.7510     0.1060     4.7320 o          1 DA5      -0.624100
     19 ND1          3.6360    -0.1150     3.5800 ns         1 DA5      -0.524900
     20 CD2          4.4370    -0.1160     4.8080 c3         1 DA5       0.099000
     21 CD3          5.9180    -0.2600     4.4510 c3         1 DA5       0.116800
     22 ND2          6.7200    -0.2590     5.6820 n3         1 DA5      -0.662600
     23 CD7          8.0850    -0.6410     5.2950 c3         1 DA5       0.118100
     24 CD8          6.7850     1.1340     6.1420 c3         1 DA5       0.118100
     25 H1          -0.5370    -0.0000    -0.9410 ha         1 DA5       0.147000
     26 H2           1.8810    -0.0010    -0.9490 ha         1 DA5       0.191000
     27 H3           3.1850    -0.0000     1.1130 ha         1 DA5       0.187000
     28 H6          -4.4630     0.0030     5.9440 ha         1 DA5       0.207000
     29 H7          -5.8080     0.0030     3.8970 ha         1 DA5       0.195000
     30 H8          -4.7670     0.0020     1.6980 ha         1 DA5       0.148000
     31 HN91        -2.3380     0.4750    -0.6670 hn         1 DA5       0.480467
     32 HN92        -3.0270    -0.9420    -0.2360 hn         1 DA5       0.480467
     33 HN93        -3.7240     0.4710     0.1990 hn         1 DA5       0.480467
     34 H10         -0.0780     0.0060     4.4870 hn         1 DA5       0.397700
     35 HND1         4.0830    -0.2320     2.6920 hn         1 DA5       0.323500
     36 HD21         4.2830     0.8150     5.3400 h1         1 DA5       0.082700
     37 HD22         4.1350    -0.9450     5.4360 h1         1 DA5       0.082700
     38 HD31         6.2200     0.5690     3.8220 h1         1 DA5       0.042700
     39 HD32         6.0720    -1.1910     3.9190 h1         1 DA5       0.042700
     40 HD71         8.4580     0.0540     4.5530 h1         1 DA5       0.045867
     41 HD72         8.7280    -0.6180     6.1670 h1         1 DA5       0.045867
     42 HD73         8.0760    -1.6420     4.8800 h1         1 DA5       0.045867
     43 HD81         6.7690     1.7980     5.2870 h1         1 DA5       0.045867
     44 HD82         7.7000     1.2870     6.7020 h1         1 DA5       0.045867
     45 HD83         5.9340     1.3440     6.7780 h1         1 DA5       0.045867
@<TRIPOS>BOND
     1     1     2 ar
     2     1    12 ar
     3     1    25 1
     4     2     3 ar
     5     2    26 1
     6     3     4 ar
     7     3    27 1
     8     4    13 ar
     9     4    17 1
    10     5     6 ar
    11     5    15 ar
    12     5    16 1
    13     6     7 ar
    14     6    28 1
    15     7     8 ar
    16     7    29 1
    17     8    14 ar
    18     8    30 1
    19     9    10 1
    20     9    12 ar
    21     9    14 ar
    22    10    31 1
    23    10    32 1
    24    10    33 1
    25    11    13 1
    26    11    15 2
    27    11    34 1
    28    12    13 ar
    29    14    15 ar
    30    17    18 2
    31    17    19 1
    32    19    20 1
    33    19    35 1
    34    20    21 1
    35    20    36 1
    36    20    37 1
    37    21    22 1
    38    21    38 1
    39    21    39 1
    40    22    23 1
    41    22    24 1
    42    23    40 1
    43    23    41 1
    44    23    42 1
    45    24    43 1
    46    24    44 1
    47    24    45 1
@<TRIPOS>SUBSTRUCTURE
     1 DA5         1 TEMP              0 ****  ****    0 ROOT
