@<TRIPOS>MOLECULE
DA6
   45    47     1     0     0
SMALL
bcc


@<TRIPOS>ATOM
      1 C1           0.0000     0.0000     0.0000 ca         1 DA6      -0.148000
      2 C2           1.3590     0.0000     0.0000 ca         1 DA6       0.044000
      3 C3           2.1040     0.0000     1.1720 ca         1 DA6      -0.013000
      4 C4           1.4920    -0.0000     2.4170 ca         1 DA6      -0.111600
      5 C5          -2.6000    -0.0030     4.9490 ca         1 DA6      -0.058000
      6 C6          -3.9590    -0.0020     4.9860 ca         1 DA6       0.033100
      7 C7          -4.7260    -0.0010     3.8210 ca         1 DA6       0.072000
      8 C8          -4.1510    -0.0010     2.5910 ca         1 DA6      -0.158000
      9 C9          -2.1130    -0.0010     1.2360 ca         1 DA6      -0.293400
     10 N9          -2.8530    -0.0010     0.0500 nz         1 DA6       0.283000
     11 N10         -0.6070    -0.0010     3.6400 na         1 DA6       0.662900
     12 C11         -0.7150    -0.0010     1.2140 ca         1 DA6       0.045000
     13 C12          0.0270    -0.0070     2.4780 ca         1 DA6      -0.170300
     14 C13         -2.7450    -0.0020     2.4820 ca         1 DA6       0.049000
     15 C14         -1.9370    -0.0010     3.7050 ca         1 DA6      -0.201300
     16 Br          -4.8320    -0.0030     6.6640 br         1 DA6       0.066900
     17 CD1          2.2970    -0.0000     3.6500 c          1 DA6       0.567700
     18 OD1          1.7520     0.1040     4.7320 o          1 DA6      -0.679100
     19 ND1          3.6380    -0.1170     3.5790 ns         1 DA6      -0.080900
     20 CD2          4.4390    -0.1160     4.8060 c3         1 DA6       0.019000
     21 CD3          5.9190    -0.2600     4.4490 c3         1 DA6       0.125800
     22 ND2          6.7220    -0.2600     5.6790 n3         1 DA6      -0.508600
     23 CD7          6.5600    -1.5870     6.2890 c3         1 DA6       0.164600
     24 CD8          8.1270    -0.1550     5.2660 c3         1 DA6       0.164600
     25 H1          -0.5380     0.0000    -0.9410 ha         1 DA6       0.120000
     26 H2           1.8800     0.0000    -0.9500 ha         1 DA6       0.144000
     27 H3           3.1860     0.0000     1.1130 ha         1 DA6       0.144000
     28 H5          -2.0300    -0.0030     5.8700 ha         1 DA6       0.164000
     29 H7          -5.8070    -0.0010     3.8990 ha         1 DA6       0.152000
     30 H8          -4.7670    -0.0010     1.7000 ha         1 DA6       0.122000
     31 HN91        -2.3350    -0.4680    -0.6670 hn         1 DA6       0.225467
     32 HN92        -3.0340     0.9430    -0.2300 hn         1 DA6       0.225467
     33 HN93        -3.7210    -0.4770     0.1980 hn         1 DA6       0.225467
     34 H10         -0.0760     0.0030     4.4880 hn         1 DA6       0.204700
     35 HND1         4.0880    -0.1860     2.6880 hn         1 DA6       0.179500
     36 HD21         4.1370    -0.9450     5.4350 h1         1 DA6       0.055700
     37 HD22         4.2850     0.8150     5.3380 h1         1 DA6       0.055700
     38 HD31         6.2210     0.5690     3.8210 h1         1 DA6       0.016700
     39 HD32         6.0730    -1.1910     3.9170 h1         1 DA6       0.016700
     40 HD71         7.4420    -1.8270     6.8700 h1         1 DA6       0.012367
     41 HD72         5.6910    -1.5830     6.9360 h1         1 DA6       0.012367
     42 HD73         6.4280    -2.3280     5.5100 h1         1 DA6       0.012367
     43 HD81         8.2800     0.7800     4.7400 h1         1 DA6       0.012367
     44 HD82         8.3750    -0.9820     4.6120 h1         1 DA6       0.012367
     45 HD83         8.7640    -0.1840     6.1420 h1         1 DA6       0.012367
@<TRIPOS>BOND
     1     1     2 ar  
     2     1    12 ar  
     3     1    25 1   
     4     2     3 ar  
     5     2    26 1   
     6     3     4 ar  
     7     3    27 1   
     8     4    13 ar  
     9     4    17 1   
    10     5     6 ar  
    11     5    15 ar  
    12     5    28 1   
    13     6     7 ar  
    14     6    16 1   
    15     7     8 ar  
    16     7    29 1   
    17     8    14 ar  
    18     8    30 1   
    19     9    10 1   
    20     9    12 ar  
    21     9    14 ar  
    22    10    31 1   
    23    10    32 1   
    24    10    33 1   
    25    11    13 1   
    26    11    15 2   
    27    11    34 1   
    28    12    13 ar  
    29    14    15 ar  
    30    17    18 2   
    31    17    19 1   
    32    19    20 1   
    33    19    35 1   
    34    20    21 1   
    35    20    36 1   
    36    20    37 1   
    37    21    22 1   
    38    21    38 1   
    39    21    39 1   
    40    22    23 1   
    41    22    24 1   
    42    23    40 1   
    43    23    41 1   
    44    23    42 1   
    45    24    43 1   
    46    24    44 1   
    47    24    45 1   
@<TRIPOS>SUBSTRUCTURE
     1 DA6         1 TEMP              0 ****  ****    0 ROOT
