@<TRIPOS>MOLECULE
molecule
   43    45     1     0     0
SMALL
bcc


@<TRIPOS>ATOM
      1 C8           0.0000     0.0000     0.0000 ca         1 DA7      -0.123000
      2 C7           1.3600     0.0000     0.0000 ca         1 DA7      -0.109000
      3 C6           2.0760     0.0000     1.1970 ca         1 DA7      -0.171000
      4 C5           1.4360     0.0010     2.3990 ca         1 DA7       0.103600
      5 F            2.1480     0.0020     3.5460 f          1 DA7      -0.109900
      6 N10         -0.6140     0.0010     3.6120 nb         1 DA7      -0.622000
      7 C4          -2.6120     0.0000     4.9870 ca         1 DA7      -0.177900
      8 C3          -4.0020     0.0000     5.0180 ca         1 DA7      -0.089000
      9 C2          -4.7370    -0.0000     3.8430 ca         1 DA7      -0.148000
     10 C1          -4.1340    -0.0000     2.6210 ca         1 DA7      -0.078000
     11 C13         -0.6960     0.0000     1.2210 ca         1 DA7      -0.160300
     12 C14          0.0250     0.0020     2.4410 ca         1 DA7       0.407600
     13 C12         -1.9380     0.0060     3.6860 ca         1 DA7       0.463600
     14 C11         -2.7360     0.0000     2.5110 ca         1 DA7      -0.180300
     15 C9          -2.1050    -0.0000     1.2490 ca         1 DA7       0.227600
     16 N9          -2.8420    -0.0010     0.0870 nv         1 DA7      -0.982200
     17 C15         -1.8350     0.0020     6.2350 c          1 DA7       0.665700
     18 O15         -0.6200     0.0030     6.1940 o          1 DA7      -0.554100
     19 N16         -2.4680     0.0020     7.4250 ns         1 DA7      -0.595900
     20 C17         -1.6950     0.0050     8.6680 c3         1 DA7       0.114000
     21 C18         -2.6480     0.0040     9.8640 c3         1 DA7       0.115800
     22 N19         -1.8720     0.0060    11.1110 n3         1 DA7      -0.665600
     23 C20         -2.8430     0.0060    12.2130 c3         1 DA7       0.120600
     24 C21         -1.1660    -1.2810    11.1700 c3         1 DA7       0.120600
     25 H8          -0.5440     0.0000    -0.9370 ha         1 DA7       0.140000
     26 H7           1.8950    -0.0010    -0.9420 ha         1 DA7       0.135000
     27 H6           3.1590    -0.0000     1.1710 ha         1 DA7       0.148000
     28 H3          -4.5160     0.0000     5.9720 ha         1 DA7       0.128000
     29 H2          -5.8190    -0.0000     3.8970 ha         1 DA7       0.132000
     30 H1          -4.7420    -0.0000     1.7240 ha         1 DA7       0.139000
     31 HN91        -3.1100     0.8660    -0.3370 hn         1 DA7       0.437800
     32 HN92        -3.1100    -0.8680    -0.3360 hn         1 DA7       0.437800
     33 H16         -3.4690     0.0070     7.4580 hn         1 DA7       0.305500
     34 H171        -1.0720     0.8900     8.7040 h1         1 DA7       0.062700
     35 H172        -1.0690    -0.8790     8.7050 h1         1 DA7       0.062700
     36 H181        -3.2740     0.8870     9.8270 h1         1 DA7       0.036700
     37 H182        -3.2710    -0.8820     9.8290 h1         1 DA7       0.036700
     38 H201        -3.4560    -0.8850    12.1540 h1         1 DA7       0.037200
     39 H202        -2.3150     0.0180    13.1590 h1         1 DA7       0.037200
     40 H203        -3.4730     0.8840    12.1400 h1         1 DA7       0.037200
     41 H211        -0.2160    -1.1950    10.6560 h1         1 DA7       0.037200
     42 H212        -0.9940    -1.5510    12.2050 h1         1 DA7       0.037200
     43 H213        -1.7680    -2.0450    10.6920 h1         1 DA7       0.037200
@<TRIPOS>BOND
     1     1     2 ar
     2     1    11 ar
     3     1    25 1
     4     2     3 ar
     5     2    26 1
     6     3     4 ar
     7     3    27 1
     8     4     5 1
     9     4    12 ar
    10     6    12 ar
    11     6    13 ar
    12     7     8 ar
    13     7    13 ar
    14     7    17 1
    15     8     9 ar
    16     8    28 1
    17     9    10 ar
    18     9    29 1
    19    10    14 ar
    20    10    30 1
    21    11    12 ar
    22    11    15 ar
    23    13    14 ar
    24    14    15 ar
    25    15    16 1
    26    16    31 1
    27    16    32 1
    28    17    18 2
    29    17    19 1
    30    19    20 1
    31    19    33 1
    32    20    21 1
    33    20    34 1
    34    20    35 1
    35    21    22 1
    36    21    36 1
    37    21    37 1
    38    22    23 1
    39    22    24 1
    40    23    38 1
    41    23    39 1
    42    23    40 1
    43    24    41 1
    44    24    42 1
    45    24    43 1
@<TRIPOS>SUBSTRUCTURE
     1 DA7         1 TEMP              0 ****  ****    0 ROOT
