@<TRIPOS>MOLECULE
DA8
   67    68     1     0     0
SMALL
bcc


@<TRIPOS>ATOM
      1 C16         0.0930   -0.0560    0.1060 c3        1 DA8     -0.079400
      2 C15         1.6000    0.0880    0.0940 c3        1 DA8     -0.079400
      3 C14         2.1690    0.0260    1.4960 c3        1 DA8     -0.078400
      4 C13         3.6750    0.1700    1.4830 c3        1 DA8     -0.078400
      5 C12         4.2400    0.1070    2.8850 c3        1 DA8     -0.084400
      6 C11         5.7510    0.2440    2.8530 c3        1 DA8      0.134400
      7 O1          6.1820    0.2350    4.2200 os        1 DA8     -0.412600
      8 C1          7.5740    0.3890    4.3690 c3        1 DA8      0.343900
      9 O5          8.0740   -0.8470    3.8720 os        1 DA8     -0.442600
     10 C5          9.4790   -1.0150    4.0550 c3        1 DA8      0.115100
     11 C6          9.7980   -2.4050    3.4940 c3        1 DA8      0.142400
     12 O6          9.5020   -2.4710    2.1160 oh        1 DA8     -0.599800
     13 C4          9.8970   -0.8930    5.5280 c3        1 DA8      0.118100
     14 O4          9.4110   -2.0370    6.2130 oh        1 DA8     -0.586800
     15 C3          9.3660    0.4050    6.1240 c3        1 DA8     -0.143400
     16 C2          7.8690    0.5440    5.8770 c3        1 DA8      0.126100
     17 O2          7.4360    1.8610    6.2200 os        1 DA8     -0.450600
     18 C1F         7.0660    2.0290    7.5780 c3        1 DA8      0.297900
     19 O5F         5.9550    1.2010    7.8360 os        1 DA8     -0.442600
     20 C5F         4.7860    1.5090    7.0590 c3        1 DA8      0.102100
     21 C6F         3.7300    0.5040    7.4690 c3        1 DA8     -0.089100
     22 C4F         4.3490    2.9530    7.3370 c3        1 DA8      0.079100
     23 O4F         3.9520    3.1570    8.6810 oh        1 DA8     -0.597800
     24 C3F         5.4970    3.9170    6.9840 c3        1 DA8      0.086100
     25 O3F         5.1290    5.2540    7.2360 oh        1 DA8     -0.578800
     26 C2F         6.7620    3.5310    7.7700 c3        1 DA8      0.099100
     27 O2F         7.8820    4.3020    7.4090 oh        1 DA8     -0.572800
     28 H16        -0.1880   -1.0310    0.5840 hc        1 DA8      0.039700
     29 C19        -0.4770    0.0060   -1.2950 c3        1 DA8     -0.080400
     30 H16A       -0.3570    0.7600    0.7320 hc        1 DA8      0.039700
     31 H15         2.0510   -0.7270   -0.5310 hc        1 DA8      0.040200
     32 H15A        1.8810    1.0640   -0.3830 hc        1 DA8      0.040200
     33 H14         1.8880   -0.9500    1.9730 hc        1 DA8      0.041200
     34 H14A        1.7180    0.8410    2.1210 hc        1 DA8      0.041200
     35 H13         3.9560    1.1460    1.0060 hc        1 DA8      0.041700
     36 H13A        4.1260   -0.6460    0.8580 hc        1 DA8      0.041700
     37 H12         3.8050    0.9260    3.5160 hc        1 DA8      0.053200
     38 H12A        3.9660   -0.8660    3.3700 hc        1 DA8      0.053200
     39 H11         6.2270   -0.6110    2.3070 h1        1 DA8      0.036700
     40 H11A        6.0610    1.2110    2.3730 h1        1 DA8      0.036700
     41 H1          7.9800    1.2510    3.7720 h2        1 DA8      0.049700
     42 H5         10.0170   -0.2190    3.4660 h1        1 DA8      0.052700
     43 H6          9.2250   -3.1820    4.0650 h1        1 DA8      0.066200
     44 H6A        10.9000   -2.5980    3.5720 h1        1 DA8      0.066200
     45 HO6         8.5530   -2.3140    2.0250 ho        1 DA8      0.413000
     46 H4         11.0240   -0.8920    5.5810 h1        1 DA8      0.045700
     47 HO4         9.5580   -1.8850    7.1550 ho        1 DA8      0.404000
     48 H3          9.5630    0.4320    7.2260 hc        1 DA8      0.061200
     49 H3A         9.9040    1.2730    5.6610 hc        1 DA8      0.061200
     50 H2          7.2900   -0.2290    6.4530 h1        1 DA8      0.098700
     51 H1F         7.8700    1.6690    8.2780 h2        1 DA8      0.083700
     52 H5F         5.0450    1.3960    5.9660 h1        1 DA8      0.089700
     53 H6F         4.1300   -0.5330    7.3630 hc        1 DA8      0.051700
     54 H6FA        3.4270    0.6670    8.5320 hc        1 DA8      0.051700
     55 H6FB        2.8360    0.6250    6.8130 hc        1 DA8      0.051700
     56 H4F         3.4370    3.2120    6.7300 h1        1 DA8      0.095700
     57 HO4F        4.5630    2.6580    9.2400 ho        1 DA8      0.410000
     58 H3F         5.7100    3.8760    5.8790 h1        1 DA8      0.092700
     59 HO3F        4.7810    5.2910    8.1380 ho        1 DA8      0.415000
     60 H2F         6.6150    3.7330    8.8690 h1        1 DA8      0.087700
     61 HO2F        7.9750    4.2420    6.4480 ho        1 DA8      0.416000
     62 H34        -0.0240   -0.8090   -1.9190 hc        1 DA8      0.038700
     63 C20        -1.9770   -0.1370   -1.2880 c3        1 DA8     -0.093100
     64 H35        -0.1930    0.9820   -1.7710 hc        1 DA8      0.038700
     65 H36        -2.3770   -0.0880   -2.3290 hc        1 DA8      0.032700
     66 H37        -2.4480    0.6820   -0.6910 hc        1 DA8      0.032700
     67 H38        -2.2780   -1.1140   -0.8390 hc        1 DA8      0.032700
@<TRIPOS>BOND
     1    1    2 1   
     2    1   28 1   
     3    1   29 1   
     4    1   30 1   
     5    2    3 1   
     6    2   31 1   
     7    2   32 1   
     8    3    4 1   
     9    3   33 1   
    10    3   34 1   
    11    4    5 1   
    12    4   35 1   
    13    4   36 1   
    14    5    6 1   
    15    5   37 1   
    16    5   38 1   
    17    6    7 1   
    18    6   39 1   
    19    6   40 1   
    20    7    8 1   
    21    8    9 1   
    22    8   16 1   
    23    8   41 1   
    24    9   10 1   
    25   10   11 1   
    26   10   13 1   
    27   10   42 1   
    28   11   12 1   
    29   11   43 1   
    30   11   44 1   
    31   12   45 1   
    32   13   14 1   
    33   13   15 1   
    34   13   46 1   
    35   14   47 1   
    36   15   16 1   
    37   15   48 1   
    38   15   49 1   
    39   16   17 1   
    40   16   50 1   
    41   17   18 1   
    42   18   19 1   
    43   18   26 1   
    44   18   51 1   
    45   19   20 1   
    46   20   21 1   
    47   20   22 1   
    48   20   52 1   
    49   21   53 1   
    50   21   54 1   
    51   21   55 1   
    52   22   23 1   
    53   22   24 1   
    54   22   56 1   
    55   23   57 1   
    56   24   25 1   
    57   24   26 1   
    58   24   58 1   
    59   25   59 1   
    60   26   27 1   
    61   26   60 1   
    62   27   61 1   
    63   29   62 1   
    64   29   63 1   
    65   29   64 1   
    66   63   65 1   
    67   63   66 1   
    68   63   67 1   
@<TRIPOS>SUBSTRUCTURE
     1 DA8         1 TEMP              0 ****  ****    0 ROOT
