@<TRIPOS>MOLECULE
molecule
   67    68     1     0     0
SMALL
bcc


@<TRIPOS>ATOM
      1 C16          0.0000     0.0000     0.0000 c3         1 DA8      -0.081400
      2 C15          1.5300     0.0000     0.0000 c3         1 DA8      -0.082400
      3 C14          2.0400     0.0000     1.4430 c3         1 DA8      -0.080400
      4 C13          3.5700     0.0000     1.4430 c3         1 DA8      -0.080400
      5 C12          4.0790     0.0000     2.8850 c3         1 DA8      -0.081400
      6 C11          5.6100     0.0000     2.8860 c3         1 DA8       0.134400
      7 O1           6.0860     0.1040     4.2290 os         1 DA8      -0.403600
      8 C1           7.5060     0.2240     4.3340 c3         1 DA8       0.355900
      9 O5           8.1160    -1.0220     3.9910 os         1 DA8      -0.417600
     10 C5           9.5440    -1.0060     4.0400 c3         1 DA8       0.162100
     11 C6          10.0840    -2.3770     3.6300 c3         1 DA8       0.148400
     12 O6           9.7560    -2.6290     2.2620 oh         1 DA8      -0.602800
     13 C4          10.0020    -0.6820     5.4650 c3         1 DA8       0.112100
     14 O4           9.5510    -1.7060     6.3550 oh         1 DA8      -0.587800
     15 C3           9.4070     0.6630     5.8910 c3         1 DA8      -0.124400
     16 C2           7.8810     0.5960     5.7710 c3         1 DA8       0.125100
     17 O2           7.3200     1.8700     6.0960 os         1 DA8      -0.427600
     18 C1F          7.1250     2.0780     7.4960 c3         1 DA8       0.328900
     19 O5F          6.0480     1.2580     7.9550 os         1 DA8      -0.419600
     20 C5F          4.8050     1.5020     7.2920 c3         1 DA8       0.139100
     21 C6F          3.7390     0.5520     7.8420 c3         1 DA8      -0.083100
     22 C4F          4.3740     2.9510     7.5400 c3         1 DA8       0.103100
     23 O4F          4.1660     3.1550     8.9380 oh         1 DA8      -0.587800
     24 C3F          5.4730     3.8940     7.0410 c3         1 DA8       0.120100
     25 O3F          5.1120     5.2460     7.3340 oh         1 DA8      -0.602800
     26 C2F          6.7860     3.5490     7.7500 c3         1 DA8       0.132100
     27 O2F          7.8350     4.3760     7.2410 oh         1 DA8      -0.595800
     28 H16         -0.3610     0.8850     0.5110 hc         1 DA8       0.041200
     29 C19         -0.5100     0.0000    -1.4430 c3         1 DA8      -0.084400
     30 H16A        -0.3610    -0.8850     0.5110 hc         1 DA8       0.041200
     31 H15          1.8910    -0.8850    -0.5110 hc         1 DA8       0.041700
     32 H15A         1.8910     0.8850    -0.5110 hc         1 DA8       0.041700
     33 H14          1.6780    -0.8850     1.9530 hc         1 DA8       0.042200
     34 H14A         1.6780     0.8840     1.9530 hc         1 DA8       0.042200
     35 H13          3.9310     0.8850     0.9330 hc         1 DA8       0.043200
     36 H13A         3.9310    -0.8840     0.9330 hc         1 DA8       0.043200
     37 H12          3.7180     0.8840     3.3960 hc         1 DA8       0.050200
     38 H12A         3.7180    -0.8850     3.3950 hc         1 DA8       0.050200
     39 H11          5.9710    -0.9210     2.4450 h1         1 DA8       0.034200
     40 H11A         5.9710     0.8430     2.3080 h1         1 DA8       0.034200
     41 H1           7.8590     0.9950     3.6600 h2         1 DA8       0.034700
     42 H5           9.9170    -0.2480     3.3620 h1         1 DA8       0.051700
     43 H6           9.6390    -3.1420     4.2540 h1         1 DA8       0.036700
     44 H6A         11.1600    -2.3920     3.7510 h1         1 DA8       0.036700
     45 HO6         10.1790    -3.4220     1.9780 ho         1 DA8       0.402000
     46 H4          11.0830    -0.6230     5.4920 h1         1 DA8       0.037700
     47 HO4         10.2390    -1.9160     6.9650 ho         1 DA8       0.399000
     48 H3           9.7860     1.4460     5.2440 hc         1 DA8       0.059200
     49 H3A          9.6800     0.8700     6.9180 hc         1 DA8       0.059200
     50 H2           7.5000    -0.1570     6.4490 h1         1 DA8       0.090700
     51 H1F          8.0290     1.8190     8.0340 h2         1 DA8       0.075700
     52 H5F          4.9270     1.3400     6.2280 h1         1 DA8       0.072700
     53 H6F          3.9850    -0.4660     7.5650 hc         1 DA8       0.047033
     54 H6FA         3.7030     0.6340     8.9210 hc         1 DA8       0.047033
     55 H6FB         2.7730     0.8160     7.4280 hc         1 DA8       0.047033
     56 H4F          3.4560     3.1510     7.0000 h1         1 DA8       0.039700
     57 HO4F         3.3420     3.5930     9.0730 ho         1 DA8       0.403000
     58 H3F          5.5970     3.7710     5.9720 h1         1 DA8       0.065700
     59 HO3F         4.9290     5.7040     6.5300 ho         1 DA8       0.404000
     60 H2F          6.6750     3.7140     8.8150 h1         1 DA8       0.078700
     61 HO2F         8.1880     4.9020     7.9390 ho         1 DA8       0.405000
     62 H34         -0.1490    -0.8850    -1.9530 hc         1 DA8       0.040200
     63 C20         -2.0400     0.0000    -1.4430 c3         1 DA8      -0.092100
     64 H35         -0.1490     0.8850    -1.9530 hc         1 DA8       0.040200
     65 H36         -2.4010    -0.8850    -0.9320 hc         1 DA8       0.032367
     66 H37         -2.4010     0.0000    -2.4640 hc         1 DA8       0.032367
     67 H38         -2.4010     0.8840    -0.9320 hc         1 DA8       0.032367
@<TRIPOS>BOND
     1     1     2 1
     2     1    28 1
     3     1    29 1
     4     1    30 1
     5     2     3 1
     6     2    31 1
     7     2    32 1
     8     3     4 1
     9     3    33 1
    10     3    34 1
    11     4     5 1
    12     4    35 1
    13     4    36 1
    14     5     6 1
    15     5    37 1
    16     5    38 1
    17     6     7 1
    18     6    39 1
    19     6    40 1
    20     7     8 1
    21     8     9 1
    22     8    16 1
    23     8    41 1
    24     9    10 1
    25    10    11 1
    26    10    13 1
    27    10    42 1
    28    11    12 1
    29    11    43 1
    30    11    44 1
    31    12    45 1
    32    13    14 1
    33    13    15 1
    34    13    46 1
    35    14    47 1
    36    15    16 1
    37    15    48 1
    38    15    49 1
    39    16    17 1
    40    16    50 1
    41    17    18 1
    42    18    19 1
    43    18    26 1
    44    18    51 1
    45    19    20 1
    46    20    21 1
    47    20    22 1
    48    20    52 1
    49    21    53 1
    50    21    54 1
    51    21    55 1
    52    22    23 1
    53    22    24 1
    54    22    56 1
    55    23    57 1
    56    24    25 1
    57    24    26 1
    58    24    58 1
    59    25    59 1
    60    26    27 1
    61    26    60 1
    62    27    61 1
    63    29    62 1
    64    29    63 1
    65    29    64 1
    66    63    65 1
    67    63    66 1
    68    63    67 1
@<TRIPOS>SUBSTRUCTURE
     1 DA8         1 TEMP              0 ****  ****    0 ROOT
