@<TRIPOS>MOLECULE
DA9
   19    18     1     0     0
SMALL
bcc


@<TRIPOS>ATOM
      1 N1          1.6050    0.5450   -0.3400 n1        1 DA9      0.206000
      2 N2          2.0440    0.4240    0.8500 n2        1 DA9     -0.492200
      3 C3          1.3290   -0.3440    1.8330 c3        1 DA9      0.095800
      4 C4          2.0420   -1.6410    2.2190 c         1 DA9      0.516100
      5 O5          1.5200   -2.7100    2.4830 o         1 DA9     -0.394100
      6 N6          3.5480   -1.5470    2.3280 n4        1 DA9     -0.671800
      7 C7          4.1690   -2.6860    3.0730 c3        1 DA9      0.100800
      8 C8          5.6810   -2.5770    3.1710 c3        1 DA9     -0.064300
      9 S9          6.3100   -4.0850    3.8060 sh        1 DA9     -0.246900
     10 N10         1.3730    0.8160   -1.4100 n1        1 DA9      0.116000
     11 H3          0.2640   -0.6350    1.5870 h1        1 DA9      0.127200
     12 H3A         1.3030    0.2930    2.7720 h1        1 DA9      0.127200
     13 HN6         3.9360   -1.5140    1.3770 hn        1 DA9      0.464300
     14 H7          3.7060   -2.7100    4.1020 hx        1 DA9      0.121200
     15 H7A         3.8820   -3.6430    2.5420 hx        1 DA9      0.121200
     16 H8          6.1440   -2.4620    2.1550 h1        1 DA9      0.099200
     17 H8A         5.9830   -1.6950    3.7860 h1        1 DA9      0.099200
     18 HS9         6.2800   -3.8210    5.1020 hs        1 DA9      0.211800
     19 H62         3.7870   -0.6600    2.7870 hn        1 DA9      0.464300
@<TRIPOS>BOND
     1    1    2 1   
     2    1   10 3   
     3    2    3 1   
     4    3    4 1   
     5    3   11 1   
     6    3   12 1   
     7    4    5 2   
     8    4    6 1   
     9    6    7 1   
    10    6   13 1   
    11    6   19 1   
    12    7    8 1   
    13    7   14 1   
    14    7   15 1   
    15    8    9 1   
    16    8   16 1   
    17    8   17 1   
    18    9   18 1   
@<TRIPOS>SUBSTRUCTURE
     1 DA9         1 TEMP              0 ****  ****    0 ROOT
