@<TRIPOS>MOLECULE
DAC
   43    42     1     0     0
SMALL
bcc


@<TRIPOS>ATOM
      1 C1           0.0000     0.0000     0.0000 c          1 DAC       0.666900
      2 O1           1.2170     0.0000     0.0000 o          1 DAC      -0.573100
      3 C2          -0.7350     0.0000     1.2740 ce         1 DAC      -0.254200
      4 C3          -0.0760     0.1300     2.4210 c2         1 DAC      -0.024200
      5 C4           1.3530     0.6110     2.4190 c3         1 DAC      -0.030200
      6 C5           1.5800     1.5410     3.6130 c3         1 DAC      -0.028400
      7 C6           3.0280     2.0290     3.6110 c3         1 DAC      -0.027400
      8 C7           3.2550     2.9590     4.8050 c3         1 DAC      -0.029400
      9 C8           4.7060     3.4480     4.8030 c3         1 DAC      -0.029400
     10 C9           4.9320     4.3780     5.9960 c3         1 DAC      -0.028400
     11 C10          6.3820     4.8660     5.9950 c3         1 DAC       0.005900
     12 S           -0.8820    -0.0030    -1.5250 ss         1 DAC      -0.330700
     13 C1'          0.5040    -0.0040    -2.6890 c3         1 DAC       0.063700
     14 C2'         -0.0340    -0.0060    -4.1220 c3         1 DAC       0.069000
     15 N3'          1.0870    -0.0060    -5.0640 ns         1 DAC      -0.209900
     16 C4'          0.8530    -0.0090    -6.3910 c          1 DAC       0.572100
     17 O4'         -0.2860    -0.0100    -6.8050 o          1 DAC      -0.642100
     18 C5'          2.0070    -0.0090    -7.3610 c3         1 DAC      -0.066100
     19 H2          -1.7620    -0.3430     1.2880 ha         1 DAC       0.125000
     20 H3          -0.6270     0.1250     3.3540 ha         1 DAC       0.102000
     21 H41          1.5510     1.1490     1.5000 hc         1 DAC       0.052200
     22 H42          2.0200    -0.2390     2.4920 hc         1 DAC       0.052200
     23 H51          0.9120     2.3910     3.5400 hc         1 DAC       0.013700
     24 H52          1.3810     1.0030     4.5320 hc         1 DAC       0.013700
     25 H61          3.2270     2.5670     2.6920 hc         1 DAC       0.017200
     26 H62          3.6960     1.1790     3.6830 hc         1 DAC       0.017200
     27 H71          2.5870     3.8090     4.7320 hc         1 DAC       0.014700
     28 H72          3.0570     2.4210     5.7240 hc         1 DAC       0.014700
     29 H81          5.3730     2.5980     4.8750 hc         1 DAC       0.014700
     30 H82          4.9040     3.9860     3.8840 hc         1 DAC       0.014700
     31 H91          4.7340     3.8400     6.9160 hc         1 DAC       0.011700
     32 H92          4.2650     5.2280     5.9240 hc         1 DAC       0.011700
     33 H101         6.5430     5.5240     6.8400 hc         1 DAC       0.000367
     34 H102         6.5810     5.4030     5.0750 hc         1 DAC       0.000367
     35 H103         7.0500     4.0160     6.0670 hc         1 DAC       0.000367
     36 H1'1         1.1100    -0.8880    -2.5300 h1         1 DAC       0.049700
     37 H1'2         1.1090     0.8810    -2.5320 h1         1 DAC       0.049700
     38 H2'1        -0.6380    -0.8910    -4.2790 h1         1 DAC       0.038700
     39 H2'2        -0.6400     0.8780    -4.2810 h1         1 DAC       0.038700
     40 HN'          2.0280    -0.0050    -4.7220 hn         1 DAC       0.175500
     41 H5'1         2.6140    -0.8910    -7.2000 hc         1 DAC       0.022700
     42 H5'2         1.6260    -0.0120    -8.3750 hc         1 DAC       0.022700
     43 H5'3         2.6090     0.8780    -7.2040 hc         1 DAC       0.022700
@<TRIPOS>BOND
     1     1     2 2   
     2     1     3 1   
     3     1    12 1   
     4     3     4 2   
     5     3    19 1   
     6     4     5 1   
     7     4    20 1   
     8     5     6 1   
     9     5    21 1   
    10     5    22 1   
    11     6     7 1   
    12     6    23 1   
    13     6    24 1   
    14     7     8 1   
    15     7    25 1   
    16     7    26 1   
    17     8     9 1   
    18     8    27 1   
    19     8    28 1   
    20     9    10 1   
    21     9    29 1   
    22     9    30 1   
    23    10    11 1   
    24    10    31 1   
    25    10    32 1   
    26    11    33 1   
    27    11    34 1   
    28    11    35 1   
    29    12    13 1   
    30    13    14 1   
    31    13    36 1   
    32    13    37 1   
    33    14    15 1   
    34    14    38 1   
    35    14    39 1   
    36    15    16 1   
    37    15    40 1   
    38    16    17 2   
    39    16    18 1   
    40    18    41 1   
    41    18    42 1   
    42    18    43 1   
@<TRIPOS>SUBSTRUCTURE
     1 DAC         1 TEMP              0 ****  ****    0 ROOT
