@<TRIPOS>MOLECULE
DAD
   41    43     1     0     0
SMALL
bcc


@<TRIPOS>ATOM
      1 PG          0.0000    0.0000    0.0000 p5        1 DAD      0.813900
      2 O1G         1.4790    0.0000    0.0000 o         1 DAD     -0.649833
      3 O2G        -0.5360    0.0000    1.5190 o         1 DAD     -0.649833
      4 O3G        -0.5370   -1.3140   -0.7580 o         1 DAD     -0.649833
      5 PB          0.0340    1.2500   -2.2620 p5        1 DAD      0.990800
      6 O1B        -0.4600    0.0230   -2.9240 o         1 DAD     -0.485000
      7 O2B         1.6420    1.2290   -2.2240 o         1 DAD     -0.485000
      8 O3B        -0.5360    1.3150   -0.7580 os        1 DAD     -0.488800
      9 PA          0.1370    2.4110   -4.5680 p5        1 DAD      0.904800
     10 O1A        -0.3590    1.1660   -5.1960 o         1 DAD     -0.670000
     11 O2A         1.7450    2.3710   -4.4920 o         1 DAD     -0.670000
     12 O3A        -0.4670    2.5410   -3.0830 os        1 DAD     -0.490800
     13 O5'        -0.3270    3.6770   -5.4490 os        1 DAD     -0.472200
     14 C5'         0.2380    3.5040   -6.7490 c3        1 DAD      0.246400
     15 C4'        -0.1670    4.6790   -7.6420 c3        1 DAD      0.160100
     16 O4'        -1.5970    4.6910   -7.8450 os        1 DAD     -0.362600
     17 C3'         0.4340    4.5140   -9.0540 c3        1 DAD     -0.063400
     18 C2'        -0.6680    5.0500   -9.9950 c3        1 DAD     -0.082400
     19 C1'        -1.8040    5.4750   -9.0400 c3        1 DAD      0.158800
     20 N9         -3.1100    5.1700   -9.6300 na        1 DAD      0.195000
     21 C8         -3.7930    3.9970   -9.5130 cc        1 DAD      0.083700
     22 N7         -4.9180    4.0720  -10.1630 nd        1 DAD     -0.551100
     23 C5         -5.0290    5.2950  -10.7340 ca        1 DAD     -0.193200
     24 C6         -5.9920    5.9270  -11.5400 ca        1 DAD      0.254200
     25 N6         -7.1530    5.2670  -11.9030 nv        1 DAD     -0.590500
     26 N1         -5.7640    7.1720  -11.9410 nb        1 DAD     -0.656000
     27 C2         -4.6580    7.8090  -11.6000 ca        1 DAD      0.446900
     28 N3         -3.7270    7.2560  -10.8520 nb        1 DAD     -0.822000
     29 C4         -3.8670    6.0130  -10.4050 ca        1 DAD      0.282800
     30 H5'1       -0.1270    2.5800   -7.1810 h1        1 DAD      0.010700
     31 H5'2        1.3180    3.4650   -6.6710 h1        1 DAD      0.010700
     32 H4'         0.1550    5.6170   -7.2070 h1        1 DAD     -0.002300
     33 H3'1        1.3360    5.1060   -9.1530 hc        1 DAD      0.007700
     34 H3'2        0.6320    3.4690   -9.2610 hc        1 DAD      0.007700
     35 H2'1       -0.3050    5.9040  -10.5550 hc        1 DAD      0.014200
     36 H2'2       -1.0090    4.2680  -10.6630 hc        1 DAD      0.014200
     37 H1'        -1.7260    6.5320   -8.8120 h2        1 DAD      0.021700
     38 H8         -3.4520    3.1320   -8.9570 h5        1 DAD      0.036800
     39 HN61       -7.3380    5.0720  -12.8670 hn        1 DAD      0.213300
     40 HN62       -7.8180    5.0030  -11.2030 hn        1 DAD      0.213300
     41 H2         -4.5130    8.8240  -11.9480 h5        1 DAD     -0.058900
@<TRIPOS>BOND
     1    1    2 1   
     2    1    3 1   
     3    1    4 1   
     4    1    8 1   
     5    5    6 1   
     6    5    7 1   
     7    5    8 1   
     8    5   12 1   
     9    9   10 1   
    10    9   11 1   
    11    9   12 1   
    12    9   13 1   
    13   13   14 1   
    14   14   15 1   
    15   14   30 1   
    16   14   31 1   
    17   15   16 1   
    18   15   17 1   
    19   15   32 1   
    20   16   19 1   
    21   17   18 1   
    22   17   33 1   
    23   17   34 1   
    24   18   19 1   
    25   18   35 1   
    26   18   36 1   
    27   19   20 1   
    28   19   37 1   
    29   20   21 1   
    30   20   29 1   
    31   21   22 2   
    32   21   38 1   
    33   22   23 1   
    34   23   24 ar  
    35   23   29 ar  
    36   24   25 1   
    37   24   26 ar  
    38   25   39 1   
    39   25   40 1   
    40   26   27 ar  
    41   27   28 ar  
    42   27   41 1   
    43   28   29 ar  
@<TRIPOS>SUBSTRUCTURE
     1 DAD         1 TEMP              0 ****  ****    0 ROOT
