@<TRIPOS>MOLECULE
DAI
   53    57     1     0     0
SMALL
bcc


@<TRIPOS>ATOM
      1 O23          0.0000     0.0000     0.0000 o          1 DAI      -0.622500
      2 C24          1.2120     0.0000     0.0000 c          1 DAI       0.635500
      3 C28          2.0900     0.0000     1.2330 c3         1 DAI      -0.126700
      4 C13          1.8130    -1.2900     2.0350 c3         1 DAI       0.104900
      5 C15          2.1100    -2.4330     1.0790 ca         1 DAI      -0.103300
      6 C16          3.4040    -2.4310     0.5630 ca         1 DAI      -0.085800
      7 C17          3.8090    -3.4010    -0.3090 ca         1 DAI      -0.073500
      8 C18          2.9070    -4.3910    -0.6750 ca         1 DAI      -0.100000
      9 C19          1.6230    -4.3920    -0.1640 ca         1 DAI      -0.101000
     10 C14          1.2180    -3.4040     0.7230 ca         1 DAI      -0.079500
     11 C12          2.9100    -1.3560     3.0850 ca         1 DAI      -0.103300
     12 C11          4.2030    -1.3540     2.5690 ca         1 DAI      -0.085800
     13 C9           5.2860    -1.4080     3.3990 ca         1 DAI      -0.073500
     14 C8           5.0770    -1.4660     4.7700 ca         1 DAI      -0.100000
     15 C7           3.7930    -1.4700     5.2830 ca         1 DAI      -0.101000
     16 C6           2.6960    -1.4140     4.4340 ca         1 DAI      -0.079500
     17 C27          3.5170     0.0010     0.6620 c3         1 DAI      -0.122700
     18 C10          4.2740    -1.2850     1.0520 c3         1 DAI       0.077600
     19 C5           5.7050    -1.3490     0.5160 c3         1 DAI       0.218400
     20 O4           6.3190    -2.5680     0.9360 oh         1 DAI      -0.586800
     21 C26          3.3020    -0.0040    -0.8360 c          1 DAI       0.637500
     22 O22          4.1800    -0.0070    -1.6720 o          1 DAI      -0.631500
     23 N25          1.9870     0.0010    -1.0910 n          1 DAI      -0.115400
     24 C21          1.4440     0.0030    -2.4510 c3         1 DAI       0.036000
     25 C20          1.2540     1.4440    -2.9240 c3         1 DAI      -0.049400
     26 C3           0.6850     1.4450    -4.3440 c3         1 DAI      -0.022400
     27 C2           0.4970     2.8880    -4.8170 c3         1 DAI      -0.027400
     28 C1          -0.0720     2.8890    -6.2380 c3         1 DAI       0.006900
     29 H28          1.9120     0.8820     1.8360 hc         1 DAI       0.065700
     30 H13          0.8140    -1.3290     2.4540 hc         1 DAI       0.058700
     31 H17          4.8160    -3.3980    -0.7080 ha         1 DAI       0.121500
     32 H18          3.2120    -5.1680    -1.3660 ha         1 DAI       0.102500
     33 H19          0.9280    -5.1700    -0.4560 ha         1 DAI       0.102500
     34 H14          0.2120    -3.4020     1.1250 ha         1 DAI       0.109500
     35 H9           6.2910    -1.4050     2.9940 ha         1 DAI       0.121500
     36 H8           5.9250    -1.5100     5.4430 ha         1 DAI       0.102500
     37 H7           3.6410    -1.5150     6.3550 ha         1 DAI       0.102500
     38 H6           1.6890    -1.4160     4.8320 ha         1 DAI       0.109500
     39 H27          4.0610     0.8840     0.9730 hc         1 DAI       0.065700
     40 H51          6.2720    -0.5090     0.8990 h1         1 DAI       0.009700
     41 H52          5.6870    -1.3080    -0.5670 h1         1 DAI       0.009700
     42 HO4          7.2080    -2.5970     0.6230 ho         1 DAI       0.390000
     43 H211         2.1310    -0.5080    -3.1150 h1         1 DAI       0.043200
     44 H212         0.4880    -0.5080    -2.4580 h1         1 DAI       0.043200
     45 H201         0.5670     1.9540    -2.2600 hc         1 DAI       0.025200
     46 H202         2.2100     1.9540    -2.9170 hc         1 DAI       0.025200
     47 H31         -0.2700     0.9350    -4.3510 hc         1 DAI       0.017200
     48 H32          1.3720     0.9340    -5.0090 hc         1 DAI       0.017200
     49 H21         -0.1890     3.4000    -4.1530 hc         1 DAI       0.013200
     50 H22          1.4530     3.3980    -4.8110 hc         1 DAI       0.013200
     51 H11         -0.2060     3.9100    -6.5730 hc         1 DAI       0.001033
     52 H12          0.6140     2.3770    -6.9020 hc         1 DAI       0.001033
     53 H13A        -1.0280     2.3790    -6.2440 hc         1 DAI       0.001033
@<TRIPOS>BOND
     1     1     2 2   
     2     2     3 1   
     3     2    23 1   
     4     3     4 1   
     5     3    17 1   
     6     3    29 1   
     7     4     5 1   
     8     4    11 1   
     9     4    30 1   
    10     5     6 ar  
    11     5    10 ar  
    12     6     7 ar  
    13     6    18 1   
    14     7     8 ar  
    15     7    31 1   
    16     8     9 ar  
    17     8    32 1   
    18     9    10 ar  
    19     9    33 1   
    20    10    34 1   
    21    11    12 ar  
    22    11    16 ar  
    23    12    13 ar  
    24    12    18 1   
    25    13    14 ar  
    26    13    35 1   
    27    14    15 ar  
    28    14    36 1   
    29    15    16 ar  
    30    15    37 1   
    31    16    38 1   
    32    17    18 1   
    33    17    21 1   
    34    17    39 1   
    35    18    19 1   
    36    19    20 1   
    37    19    40 1   
    38    19    41 1   
    39    20    42 1   
    40    21    22 2   
    41    21    23 1   
    42    23    24 1   
    43    24    25 1   
    44    24    43 1   
    45    24    44 1   
    46    25    26 1   
    47    25    45 1   
    48    25    46 1   
    49    26    27 1   
    50    26    47 1   
    51    26    48 1   
    52    27    28 1   
    53    27    49 1   
    54    27    50 1   
    55    28    51 1   
    56    28    52 1   
    57    28    53 1   
@<TRIPOS>SUBSTRUCTURE
     1 DAI         1 TEMP              0 ****  ****    0 ROOT
