@<TRIPOS>MOLECULE
molecule
   35    37     1     0     0
SMALL
bcc


@<TRIPOS>ATOM
      1 C1           0.0000     0.0000     0.0000 c3         1 DAJ      -0.022100
      2 C2           1.5450     0.0000     0.0000 c3         1 DAJ       0.051500
      3 N1           2.0700     1.2100    -0.6460 nz         1 DAJ      -0.857600
      4 C3           1.8620     0.0000     1.5100 c3         1 DAJ       0.037300
      5 N2           0.6960    -0.6250     2.1600 na         1 DAJ      -0.011100
      6 C4          -0.3730    -0.6320     1.3270 cc         1 DAJ      -0.134600
      7 C12          0.3350    -1.2070     3.3470 cc         1 DAJ      -0.127900
      8 C11         -0.9970    -1.5790     3.2480 cd         1 DAJ      -0.181600
      9 C5           1.0750    -1.4660     4.5940 c          1 DAJ       0.586900
     10 C6           0.4080    -2.1240     5.7210 cc         1 DAJ      -0.011400
     11 C13          1.1760    -2.3910     6.9890 c3         1 DAJ      -0.102900
     12 C7          -0.8900    -2.4910     5.6360 cd         1 DAJ      -0.173200
     13 N3          -1.5020    -3.1040     6.7090 nz         1 DAJ      -0.652400
     14 C8          -1.6610    -2.2350     4.3910 c          1 DAJ       0.614900
     15 C9          -1.4290    -1.2060     1.9610 cd         1 DAJ      -0.008300
     16 C10         -2.8100    -1.4060     1.3920 c3         1 DAJ      -0.036800
     17 H11         -0.3770    -0.5970    -0.8220 hc         1 DAJ       0.102700
     18 H12         -0.3770     1.0140    -0.0550 hc         1 DAJ       0.102700
     19 H2           1.9290    -0.8960    -0.4720 hx         1 DAJ       0.147700
     20 HN1          1.3970     1.7290    -1.1750 hn         1 DAJ       0.491467
     21 HN2          2.4550     0.4170    -1.1200 hn         1 DAJ       0.491467
     22 HN3          2.7250     1.7290    -0.0960 hn         1 DAJ       0.491467
     23 H31          1.9860     1.0160     1.8650 h1         1 DAJ       0.101700
     24 H32          2.7540    -0.5830     1.7040 h1         1 DAJ       0.101700
     25 H131         0.7030    -1.8720     7.8140 hc         1 DAJ       0.094367
     26 H132         2.1940    -2.0380     6.8770 hc         1 DAJ       0.094367
     27 H133         1.1840    -3.4560     7.1900 hc         1 DAJ       0.094367
     28 HN4         -2.4550    -3.3040     6.4800 hn         1 DAJ       0.472467
     29 HN5         -1.4710    -2.4950     7.5030 hn         1 DAJ       0.472467
     30 H101        -3.5490    -1.0850     2.1160 hc         1 DAJ       0.070367
     31 H102        -2.9590    -2.4550     1.1640 hc         1 DAJ       0.070367
     32 H103        -2.9150    -0.8210     0.4860 hc         1 DAJ       0.070367
     33 O1           2.2420    -1.1360     4.6880 o          1 DAJ      -0.445100
     34 O2          -2.8280    -2.5630     4.3150 o          1 DAJ      -0.471100
     35 H33         -1.0240    -3.9560     6.9230 hn         1 DAJ       0.472467
@<TRIPOS>BOND
     1     1     2 1
     2     1     6 1
     3     1    17 1
     4     1    18 1
     5     2     3 1
     6     2     4 1
     7     2    19 1
     8     3    20 1
     9     3    21 1
    10     3    22 1
    11     4     5 1
    12     4    23 1
    13     4    24 1
    14     5     6 1
    15     5     7 1
    16     6    15 2
    17     7     8 2
    18     7     9 1
    19     8    14 1
    20     8    15 1
    21    33     9 2
    22     9    10 1
    23    10    11 1
    24    10    12 2
    25    11    25 1
    26    11    26 1
    27    11    27 1
    28    12    13 1
    29    12    14 1
    30    13    28 1
    31    13    29 1
    32    34    14 2
    33    15    16 1
    34    16    30 1
    35    16    31 1
    36    16    32 1
    37    35    13 1
@<TRIPOS>SUBSTRUCTURE
     1 DAJ         1 TEMP              0 ****  ****    0 ROOT
