@<TRIPOS>MOLECULE
DAN
   36    36     1     0     0
SMALL
bcc


@<TRIPOS>ATOM
      1 C1           0.0000     0.0000     0.0000 c          1 DAN       0.970800
      2 C2           1.4730     0.0000     0.0000 ce         1 DAN       0.065900
      3 C3           2.0660     0.0000     1.1770 c2         1 DAN      -0.351200
      4 C4           3.5670    -0.0190     1.3230 c3         1 DAN       0.246300
      5 C5           4.1830     0.2670    -0.0530 c3         1 DAN      -0.034300
      6 C6           3.3900    -0.5380    -1.0900 c3         1 DAN       0.139100
      7 C7           4.0910    -0.4600    -2.4480 c3         1 DAN       0.178100
      8 C8           3.2940    -1.2600    -3.4800 c3         1 DAN       0.153100
      9 C9           3.9950    -1.1830    -4.8370 c3         1 DAN       0.193400
     10 C11          7.9990     0.2980     0.2580 c3         1 DAN      -0.070100
     11 N5           5.5880    -0.1490    -0.0670 ns         1 DAN      -0.191900
     12 O1A         -0.6080    -0.0010     1.0510 o          1 DAN      -0.873800
     13 O1B         -0.6740     0.0010    -1.1680 o          1 DAN      -0.873800
     14 O4           3.9750     0.9860     2.2530 oh         1 DAN      -0.568800
     15 O6           2.0790     0.0010    -1.2000 os         1 DAN      -0.222900
     16 O7           4.1710     0.9050    -2.8630 oh         1 DAN      -0.554800
     17 O8           3.2140    -2.6250    -3.0630 oh         1 DAN      -0.596800
     18 O9           3.2510    -1.9300    -5.8010 oh         1 DAN      -0.585800
     19 O10          6.2610     1.8580     0.5960 o          1 DAN      -0.625100
     20 H3           1.4540     0.0170     2.0710 ha         1 DAN       0.153000
     21 H4           3.8860    -0.9950     1.6690 h1         1 DAN      -0.018300
     22 H5           4.1060     1.3250    -0.2750 h1         1 DAN       0.100700
     23 H6           3.3270    -1.5710    -0.7700 h1         1 DAN       0.031700
     24 H7           5.0900    -0.8710    -2.3630 h1         1 DAN      -0.004300
     25 H8           2.2960    -0.8480    -3.5640 h1         1 DAN       0.063700
     26 H91          4.9930    -1.5950    -4.7520 h1         1 DAN      -0.012800
     27 H92          4.0580    -0.1480    -5.1520 h1         1 DAN      -0.012800
     28 H111         8.0970    -0.6590     0.7560 hc         1 DAN       0.014367
     29 H112         8.3370     0.2080    -0.7670 hc         1 DAN       0.014367
     30 H113         8.6010     1.0360     0.7740 hc         1 DAN       0.014367
     31 HN5          5.8250    -1.0980    -0.2800 hn         1 DAN       0.164500
     32 HO4          3.9210     0.6430     3.1300 ho         1 DAN       0.374000
     33 HO7          5.0200     1.0700    -3.2390 ho         1 DAN       0.372000
     34 HO8          2.3550    -2.9630    -3.2560 ho         1 DAN       0.410000
     35 HO9          3.5640    -1.7260    -6.6660 ho         1 DAN       0.379000
     36 C10          6.5540     0.7260     0.2730 c          1 DAN       0.559100
@<TRIPOS>BOND
     1     1     2 1   
     2     1    12 1   
     3     1    13 1   
     4     2     3 2   
     5     2    15 1   
     6     3     4 1   
     7     3    20 1   
     8     4     5 1   
     9     4    14 1   
    10     4    21 1   
    11     5     6 1   
    12     5    11 1   
    13     5    22 1   
    14     6     7 1   
    15     6    15 1   
    16     6    23 1   
    17     7     8 1   
    18     7    16 1   
    19     7    24 1   
    20     8     9 1   
    21     8    17 1   
    22     8    25 1   
    23     9    18 1   
    24     9    26 1   
    25     9    27 1   
    26    10    28 1   
    27    10    29 1   
    28    10    30 1   
    29    10    36 1   
    30    11    31 1   
    31    11    36 1   
    32    14    32 1   
    33    16    33 1   
    34    17    34 1   
    35    18    35 1   
    36    19    36 2   
@<TRIPOS>SUBSTRUCTURE
     1 DAN         1 TEMP              0 ****  ****    0 ROOT
