@<TRIPOS>MOLECULE
DAP
   38    40     1     0     0
SMALL
bcc


@<TRIPOS>ATOM
      1 N1           0.0000     0.0000     0.0000 na         1 DAP       0.403600
      2 C2           1.3750     0.0000     0.0000 cc         1 DAP      -0.202300
      3 C3           1.8240     0.0000     1.2810 cd         1 DAP      -0.109200
      4 C4           0.5430     0.0190     3.5280 ca         1 DAP       0.018000
      5 C5          -0.7020     0.0210     4.0790 ca         1 DAP      -0.140000
      6 C6          -1.8390     0.0180     3.2620 ca         1 DAP      -0.208900
      7 C7          -1.7090     0.0110     1.8770 ca         1 DAP      -0.026000
      8 C8          -0.4450     0.0080     1.3060 ca         1 DAP      -0.233200
      9 C9           0.6940     0.0110     2.1350 ca         1 DAP      -0.073800
     10 C10         -3.1850     0.0220     3.8750 ce         1 DAP       0.217800
     11 N2          -4.2460     0.0190     3.1180 n2         1 DAP      -0.491100
     12 N3          -3.3190     0.0290     5.2460 nz         1 DAP       0.190400
     13 C1'          2.2300    -0.0070    -1.2050 ca         1 DAP       0.025200
     14 C2'          3.3930     0.7630    -1.2400 ca         1 DAP      -0.062000
     15 C3'          4.1900     0.7560    -2.3620 ca         1 DAP      -0.061500
     16 C4'          3.8360    -0.0220    -3.4650 ca         1 DAP      -0.218900
     17 C5'          2.6690    -0.7880    -3.4320 ca         1 DAP      -0.061500
     18 C6'          1.8740    -0.7860    -2.3080 ca         1 DAP      -0.062000
     19 C11          4.6930    -0.0300    -4.6710 ce         1 DAP       0.201800
     20 N4           5.7770     0.6900    -4.7050 n2         1 DAP      -0.462100
     21 N5           4.3410    -0.7970    -5.7600 nz         1 DAP       0.190400
     22 HN1         -0.5830    -0.0000    -0.8140 hn         1 DAP       0.127700
     23 H3           2.8610     0.0000     1.5930 ha         1 DAP       0.147000
     24 H4           1.4180     0.0220     4.1670 ha         1 DAP       0.125000
     25 H5          -0.8140     0.0270     5.1560 ha         1 DAP       0.092000
     26 H7          -2.5910     0.0080     1.2470 ha         1 DAP       0.108000
     27 HN2         -4.1510     0.0140     2.1210 hn         1 DAP       0.375400
     28 HN31        -4.2900     0.0310     5.4870 hn         1 DAP       0.224133
     29 HN32        -2.8810     0.8480     5.6200 hn         1 DAP       0.224133
     30 H2'          3.6690     1.3680    -0.3840 ha         1 DAP       0.128500
     31 H3'          5.0940     1.3520    -2.3880 ha         1 DAP       0.105000
     32 H5'          2.3940    -1.3920    -4.2880 ha         1 DAP       0.105000
     33 H6'          0.9690    -1.3800    -2.2830 ha         1 DAP       0.128500
     34 HN4          6.0330     1.2490    -3.9150 hn         1 DAP       0.380400
     35 HN51         4.2940    -1.7590    -5.4900 hn         1 DAP       0.223800
     36 HN52         3.4480    -0.5020    -6.1020 hn         1 DAP       0.223800
     37 H33         -2.8780    -0.7840     5.6290 hn         1 DAP       0.224133
     38 H53          5.0210    -0.6780    -6.4850 hn         1 DAP       0.223800
@<TRIPOS>BOND
     1     1     2 1   
     2     1     8 1   
     3     1    22 1   
     4     2     3 2   
     5     2    13 1   
     6     3     9 1   
     7     3    23 1   
     8     4     5 ar  
     9     4     9 ar  
    10     4    24 1   
    11     5     6 ar  
    12     5    25 1   
    13     6     7 ar  
    14     6    10 1   
    15     7     8 ar  
    16     7    26 1   
    17     8     9 ar  
    18    10    11 2   
    19    10    12 1   
    20    11    27 1   
    21    12    28 1   
    22    12    29 1   
    23    12    37 1   
    24    13    14 ar  
    25    13    18 ar  
    26    14    15 ar  
    27    14    30 1   
    28    15    16 ar  
    29    15    31 1   
    30    16    17 ar  
    31    16    19 1   
    32    17    18 ar  
    33    17    32 1   
    34    18    33 1   
    35    19    20 2   
    36    19    21 1   
    37    20    34 1   
    38    21    35 1   
    39    21    36 1   
    40    21    38 1   
@<TRIPOS>SUBSTRUCTURE
     1 DAP         1 TEMP              0 ****  ****    0 ROOT
