@<TRIPOS>MOLECULE
molecule
   38    40     1     0     0
SMALL
bcc


@<TRIPOS>ATOM
      1 N1           0.0000     0.0000     0.0000 na         1 DAP      -0.152400
      2 C2           1.3750     0.0000     0.0000 cc         1 DAP      -0.002300
      3 C3           1.8240     0.0000     1.2810 cd         1 DAP      -0.152200
      4 C4           0.5430     0.0190     3.5280 ca         1 DAP      -0.042000
      5 C5          -0.7020     0.0210     4.0790 ca         1 DAP      -0.164000
      6 C6          -1.8390     0.0180     3.2620 ca         1 DAP      -0.178900
      7 C7          -1.7090     0.0110     1.8770 ca         1 DAP      -0.031000
      8 C8          -0.4450     0.0080     1.3060 ca         1 DAP      -0.049200
      9 C9           0.6940     0.0110     2.1350 ca         1 DAP      -0.065800
     10 C10         -3.1850     0.0220     3.8750 ce         1 DAP       0.547800
     11 N2          -4.2460     0.0190     3.1180 n2         1 DAP      -0.691100
     12 N3          -3.3190     0.0290     5.2460 nz         1 DAP      -0.800600
     13 C1'          2.2300    -0.0070    -1.2050 ca         1 DAP       0.009200
     14 C2'          3.3930     0.7630    -1.2400 ca         1 DAP      -0.099500
     15 C3'          4.1900     0.7560    -2.3620 ca         1 DAP      -0.077500
     16 C4'          3.8360    -0.0220    -3.4650 ca         1 DAP      -0.182900
     17 C5'          2.6690    -0.7880    -3.4320 ca         1 DAP      -0.077500
     18 C6'          1.8740    -0.7860    -2.3080 ca         1 DAP      -0.099500
     19 C11          4.6930    -0.0300    -4.6710 ce         1 DAP       0.535800
     20 N4           5.7770     0.6900    -4.7050 n2         1 DAP      -0.668100
     21 N5           4.3410    -0.7970    -5.7600 nz         1 DAP      -0.801600
     22 HN1         -0.5830    -0.0000    -0.8140 hn         1 DAP       0.316700
     23 H3           2.8610     0.0000     1.5930 ha         1 DAP       0.176000
     24 H4           1.4180     0.0220     4.1670 ha         1 DAP       0.162000
     25 H5          -0.8140     0.0270     5.1560 ha         1 DAP       0.112000
     26 H7          -2.5910     0.0080     1.2470 ha         1 DAP       0.168000
     27 HN2         -5.1570     0.0220     3.5320 hn         1 DAP       0.437400
     28 HN31        -2.8810     0.8480     5.6200 hn         1 DAP       0.467800
     29 HN32        -2.8820    -0.7860     5.6290 hn         1 DAP       0.467800
     30 H2'          3.6690     1.3680    -0.3840 ha         1 DAP       0.164000
     31 H3'          5.0940     1.3520    -2.3880 ha         1 DAP       0.148000
     32 H5'          2.3940    -1.3920    -4.2880 ha         1 DAP       0.148000
     33 H6'          0.9690    -1.3800    -2.2830 ha         1 DAP       0.164000
     34 HN4          6.3560     0.6860    -5.5210 hn         1 DAP       0.442400
     35 HN51         5.0280    -0.6880    -6.4810 hn         1 DAP       0.468133
     36 HN52         3.4490    -0.5020    -6.1030 hn         1 DAP       0.468133
     37 H33         -4.2900     0.0270     5.4870 hn         1 DAP       0.467800
     38 H53          4.2900    -1.7590    -5.4890 hn         1 DAP       0.468133
@<TRIPOS>BOND
     1     1     2 1
     2     1     8 1
     3     1    22 1
     4     2     3 2
     5     2    13 1
     6     3     9 1
     7     3    23 1
     8     4     5 ar
     9     4     9 ar
    10     4    24 1
    11     5     6 ar
    12     5    25 1
    13     6     7 ar
    14     6    10 1
    15     7     8 ar
    16     7    26 1
    17     8     9 ar
    18    10    11 2
    19    10    12 1
    20    11    27 1
    21    12    28 1
    22    12    29 1
    23    13    14 ar
    24    13    18 ar
    25    14    15 ar
    26    14    30 1
    27    15    16 ar
    28    15    31 1
    29    16    17 ar
    30    16    19 1
    31    17    18 ar
    32    17    32 1
    33    18    33 1
    34    19    20 2
    35    19    21 1
    36    20    34 1
    37    21    35 1
    38    21    36 1
    39    37    12 1
    40    38    21 1
@<TRIPOS>SUBSTRUCTURE
     1 DAP         1 TEMP              0 ****  ****    0 ROOT
