@<TRIPOS>MOLECULE
molecule
   38    40     1     0     0
SMALL
bcc


@<TRIPOS>ATOM
      1 PB           0.0000     0.0000     0.0000 p5         1 DAT       1.190900
      2 O1B          1.4790     0.0000     0.0000 o          1 DAT      -0.832833
      3 O2B         -0.5360     0.0000     1.5180 o          1 DAT      -0.832833
      4 O3B         -0.5370    -1.3140    -0.7570 o          1 DAT      -0.832833
      5 PA           0.0340     1.2490    -2.2620 p5         1 DAT       1.248800
      6 O1A          1.5130     1.2300    -2.2280 o          1 DAT      -0.800000
      7 O2A         -0.5030    -0.0860    -2.9820 o          1 DAT      -0.800000
      8 O3A         -0.5370     1.3150    -0.7580 os         1 DAT      -0.645800
      9 O5'         -0.4660     2.5410    -3.0820 os         1 DAT      -0.537200
     10 C5'          0.0700     2.4260    -4.4020 c3         1 DAT       0.171400
     11 C4'         -0.3700     3.6270    -5.2390 c3         1 DAT       0.136100
     12 O4'          0.2100     4.8490    -4.7270 os         1 DAT      -0.376600
     13 C3'          0.1970     3.5290    -6.6770 c3         1 DAT       0.103100
     14 O3'         -0.6630     2.7520    -7.5140 oh         1 DAT      -0.595800
     15 C2'          0.2110     5.0110    -7.1220 c3         1 DAT      -0.161400
     16 C1'          0.1870     5.8030    -5.8020 c3         1 DAT       0.252800
     17 N9           1.3630     6.6730    -5.7200 na         1 DAT      -0.250000
     18 C8           2.5740     6.3430    -5.1890 cc         1 DAT       0.424700
     19 N7           3.3890     7.3530    -5.2810 nd         1 DAT      -0.623100
     20 C5           2.7570     8.3900    -5.8830 ca         1 DAT      -0.215200
     21 C6           3.1220     9.7000    -6.2330 ca         1 DAT       0.715200
     22 N6           4.3960    10.1750    -5.9730 nv         1 DAT      -1.011500
     23 N1           2.2160    10.4730    -6.8240 nb         1 DAT      -0.840000
     24 C2           0.9990    10.0300    -7.0750 ca         1 DAT       0.639900
     25 N3           0.6120     8.8110    -6.7610 nb         1 DAT      -0.804000
     26 C4           1.4480     7.9670    -6.1670 ca         1 DAT       0.465800
     27 H5'1         1.1520     2.3990    -4.3510 h1         1 DAT       0.062700
     28 H5'2        -0.2930     1.5140    -4.8610 h1         1 DAT       0.062700
     29 H4'         -1.4510     3.7050    -5.2640 h1         1 DAT       0.064700
     30 H3'          1.2020     3.1240    -6.6650 h1         1 DAT       0.057700
     31 HO3'        -0.1430     2.2600    -8.1270 ho         1 DAT       0.390000
     32 H2'1        -0.6690     5.2360    -7.7130 hc         1 DAT       0.054200
     33 H2'2         1.1140     5.2300    -7.6780 hc         1 DAT       0.054200
     34 H1'         -0.7180     6.3950    -5.7460 h2         1 DAT       0.073700
     35 H8           2.8200     5.3830    -4.7530 h5         1 DAT       0.104800
     36 HN61         4.6160    11.1360    -6.1430 hn         1 DAT       0.428800
     37 HN62         5.0910     9.5620    -5.5930 hn         1 DAT       0.428800
     38 H2           0.2920    10.6930    -7.5590 h5         1 DAT       0.027100
@<TRIPOS>BOND
     1     1     2 1
     2     1     3 1
     3     1     4 1
     4     1     8 1
     5     5     6 1
     6     5     7 1
     7     5     8 1
     8     5     9 1
     9     9    10 1
    10    10    11 1
    11    10    27 1
    12    10    28 1
    13    11    12 1
    14    11    13 1
    15    11    29 1
    16    12    16 1
    17    13    14 1
    18    13    15 1
    19    13    30 1
    20    14    31 1
    21    15    16 1
    22    15    32 1
    23    15    33 1
    24    16    17 1
    25    16    34 1
    26    17    18 1
    27    17    26 1
    28    18    19 2
    29    18    35 1
    30    19    20 1
    31    20    21 ar
    32    20    26 ar
    33    21    22 1
    34    21    23 ar
    35    22    36 1
    36    22    37 1
    37    23    24 ar
    38    24    25 ar
    39    24    38 1
    40    25    26 ar
@<TRIPOS>SUBSTRUCTURE
     1 DAT         1 TEMP              0 ****  ****    0 ROOT
