@<TRIPOS>MOLECULE
DAV
   19    18     1     0     0
SMALL
bcc


@<TRIPOS>ATOM
      1 OT1          0.0000     0.0000     0.0000 o          1 DAV      -0.880800
      2 OT2          1.9460     0.0010    -1.0460 o          1 DAV      -0.880800
      3 CB           3.6000    -0.0000     1.0250 c3         1 DAV      -0.004400
      4 CG           4.3650     0.0000     2.3510 c3         1 DAV      -0.046400
      5 CD           5.8690    -0.0000     2.0710 c3         1 DAV      -0.058200
      6 NE           6.6040    -0.0000     3.3440 nz         1 DAV       0.076400
      7 C            1.3420     0.0000     0.0000 c          1 DAV       0.976600
      8 CA           2.0950     0.0000     1.3050 c3         1 DAV      -0.134400
      9 HCB1         3.8620    -0.8850     0.4570 hc         1 DAV       0.033700
     10 HCB2         3.8620     0.8850     0.4570 hc         1 DAV       0.033700
     11 HCG1         4.1030     0.8850     2.9190 hc         1 DAV       0.024700
     12 HCG2         4.1030    -0.8850     2.9190 hc         1 DAV       0.024700
     13 HCD1         6.1310     0.8850     1.5030 hx         1 DAV       0.084700
     14 HCD2         6.1310    -0.8850     1.5030 hx         1 DAV       0.084700
     15 HT1          6.3620     0.8170     3.8680 hn         1 DAV       0.216133
     16 HT2          7.5880     0.0000     3.1610 hn         1 DAV       0.216133
     17 HT3          6.3620    -0.8170     3.8680 hn         1 DAV       0.216133
     18 HCA1         1.8340    -0.8850     1.8730 hc         1 DAV       0.009700
     19 HCA2         1.8340     0.8850     1.8730 hc         1 DAV       0.009700
@<TRIPOS>BOND
     1     1     7 1   
     2     2     7 1   
     3     3     4 1   
     4     3     8 1   
     5     3     9 1   
     6     3    10 1   
     7     4     5 1   
     8     4    11 1   
     9     4    12 1   
    10     5     6 1   
    11     5    13 1   
    12     5    14 1   
    13     6    15 1   
    14     6    16 1   
    15     6    17 1   
    16     7     8 1   
    17     8    18 1   
    18     8    19 1   
@<TRIPOS>SUBSTRUCTURE
     1 DAV         1 TEMP              0 ****  ****    0 ROOT
