@<TRIPOS>MOLECULE
molecule
   19    18     1     0     0
SMALL
bcc


@<TRIPOS>ATOM
      1 OT1          0.0000     0.0000     0.0000 o          1 DAV      -0.830800
      2 OT2          1.9460     0.0010    -1.0460 o          1 DAV      -0.830800
      3 CB           3.6000    -0.0000     1.0250 c3         1 DAV      -0.056400
      4 CG           4.3650     0.0000     2.3510 c3         1 DAV      -0.118400
      5 CD           5.8690    -0.0000     2.0710 c3         1 DAV       0.083800
      6 NE           6.6040    -0.0000     3.3440 nz         1 DAV      -0.813600
      7 C            1.3420     0.0000     0.0000 c          1 DAV       0.890600
      8 CA           2.0950     0.0000     1.3050 c3         1 DAV      -0.185400
      9 HCB1         3.8620    -0.8850     0.4570 hc         1 DAV       0.061700
     10 HCB2         3.8620     0.8850     0.4570 hc         1 DAV       0.061700
     11 HCG1         4.1030     0.8850     2.9190 hc         1 DAV       0.053700
     12 HCG2         4.1030    -0.8850     2.9190 hc         1 DAV       0.053700
     13 HCD1         6.1310     0.8850     1.5030 hx         1 DAV       0.109700
     14 HCD2         6.1310    -0.8850     1.5030 hx         1 DAV       0.109700
     15 HT1          6.3620     0.8170     3.8680 hn         1 DAV       0.446467
     16 HT2          7.5880     0.0000     3.1610 hn         1 DAV       0.446467
     17 HT3          6.3620    -0.8170     3.8680 hn         1 DAV       0.446467
     18 HCA1         1.8340    -0.8850     1.8730 hc         1 DAV       0.034700
     19 HCA2         1.8340     0.8850     1.8730 hc         1 DAV       0.034700
@<TRIPOS>BOND
     1     1     7 1
     2     2     7 1
     3     3     4 1
     4     3     8 1
     5     3     9 1
     6     3    10 1
     7     4     5 1
     8     4    11 1
     9     4    12 1
    10     5     6 1
    11     5    13 1
    12     5    14 1
    13     6    15 1
    14     6    16 1
    15     6    17 1
    16     7     8 1
    17     8    18 1
    18     8    19 1
@<TRIPOS>SUBSTRUCTURE
     1 DAV         1 TEMP              0 ****  ****    0 ROOT
