@<TRIPOS>MOLECULE
molecule
   58    60     1     0     0
SMALL
bcc


@<TRIPOS>ATOM
      1 N1           0.0000     0.0000     0.0000 nz         1 DAW      -0.807500
      2 N3           3.1530     6.2760    -7.6680 nc         1 DAW      -0.345000
      3 C4           2.9950     3.9680    -1.7300 ca         1 DAW      -0.037600
      4 C5           2.7890     3.8360    -0.3560 ca         1 DAW      -0.096000
      5 C6           2.3800     2.6260     0.1640 ca         1 DAW      -0.034000
      6 C7           3.4330     5.2630    -2.2940 c          1 DAW       0.657700
      7 C8           4.0660     6.6700    -4.1800 c3         1 DAW       0.252300
      8 C10          6.1570     7.9750    -3.7470 ca         1 DAW      -0.101500
      9 C13          7.7300     5.7640    -4.2750 ca         1 DAW      -0.118000
     10 C15          3.6400     6.7590    -5.6230 cd         1 DAW      -0.260900
     11 S1           1.6550     0.0000     0.0000 sy         1 DAW       1.226200
     12 O1           2.0570     0.0000     1.3630 o          1 DAW      -0.514300
     13 O2           2.0570    -0.9980    -0.9290 o          1 DAW      -0.514300
     14 C1           2.1770     1.5430    -0.6730 ca         1 DAW      -0.331500
     15 C2           2.3790     1.6670    -2.0360 ca         1 DAW      -0.034000
     16 C3           2.7930     2.8700    -2.5680 ca         1 DAW      -0.096000
     17 O3           3.6150     6.2150    -1.5610 o          1 DAW      -0.568100
     18 N2           3.6320     5.3870    -3.6210 ns         1 DAW      -0.559900
     19 C9           5.5670     6.7740    -4.0920 ca         1 DAW      -0.108300
     20 C11          7.5340     8.0710    -3.6660 ca         1 DAW      -0.118000
     21 C12          8.3200     6.9650    -3.9300 ca         1 DAW      -0.108000
     22 C14          6.3530     5.6680    -4.3560 ca         1 DAW      -0.101500
     23 C16          3.5800     5.7440    -6.5170 cc         1 DAW       0.276200
     24 N4           2.9610     7.5360    -7.4970 nd         1 DAW      -0.167800
     25 N5           3.2410     7.8690    -6.2860 na         1 DAW       0.157400
     26 C17          3.1450     9.2170    -5.7210 c3         1 DAW      -0.022700
     27 C20          5.7750    13.3060    -5.0570 c3         1 DAW      -0.086400
     28 C21          7.1050    14.0360    -5.2470 c3         1 DAW       0.042700
     29 C18          4.4550     9.9350    -5.9090 c          1 DAW       0.632100
     30 O4           5.3800     9.3760    -6.4590 o          1 DAW      -0.563100
     31 N6           4.6010    11.2000    -5.4640 ns         1 DAW      -0.583900
     32 C19          5.8760    11.8980    -5.6460 c3         1 DAW       0.115000
     33 S2           6.9860    15.7050    -4.5480 sh         1 DAW      -0.421900
     34 HN1         -0.3340     0.1060    -0.9380 hn         1 DAW       0.492800
     35 HN1A        -0.3340    -0.8650     0.3770 hn         1 DAW       0.492800
     36 H5           2.9480     4.6830     0.3010 ha         1 DAW       0.175500
     37 H6           2.2200     2.5220     1.2300 ha         1 DAW       0.160000
     38 H8           3.6150     7.4800    -3.6200 h1         1 DAW       0.083700
     39 H10          5.5410     8.8420    -3.5400 ha         1 DAW       0.120000
     40 H13          8.3470     4.8980    -4.4810 ha         1 DAW       0.135500
     41 H2           2.2200     0.8150    -2.6850 ha         1 DAW       0.160000
     42 H3           2.9510     2.9660    -3.6360 ha         1 DAW       0.175500
     43 HN2          3.4510     4.6130    -4.2280 hn         1 DAW       0.319500
     44 H11          7.9970     9.0120    -3.3960 ha         1 DAW       0.135500
     45 H12          9.3990     7.0400    -3.8670 ha         1 DAW       0.138000
     46 H14          5.8900     4.7260    -4.6260 ha         1 DAW       0.120000
     47 H16          3.8300     4.7060    -6.3360 h4         1 DAW       0.039100
     48 H17          2.9180     9.1510    -4.6640 h1         1 DAW       0.092200
     49 H17A         2.3580     9.7650    -6.2250 h1         1 DAW       0.092200
     50 H20          4.9880    13.8530    -5.5620 hc         1 DAW       0.062200
     51 H20A         5.5480    13.2400    -4.0000 hc         1 DAW       0.062200
     52 H21          7.8930    13.4880    -4.7430 h1         1 DAW       0.061200
     53 H21A         7.3330    14.1020    -6.3040 h1         1 DAW       0.061200
     54 HN6          3.8310    11.6690    -5.0300 hn         1 DAW       0.316500
     55 H19          6.6620    11.3510    -5.1410 h1         1 DAW       0.059700
     56 H19A         6.1030    11.9640    -6.7030 h1         1 DAW       0.059700
     57 HS2          8.1410    16.3380    -4.7130 hs         1 DAW       0.229800
     58 H131        -0.3340     0.7590     0.5600 hn         1 DAW       0.492800
@<TRIPOS>BOND
     1     1    11 1
     2     2    23 1
     3     2    24 2
     4     3     4 ar
     5     3     6 1
     6     3    16 ar
     7     4     5 ar
     8     5    14 ar
     9     6    17 2
    10     6    18 1
    11     7    10 1
    12     7    18 1
    13     7    19 1
    14     8    19 ar
    15     8    20 ar
    16     9    21 ar
    17     9    22 ar
    18    10    23 2
    19    10    25 1
    20    11    12 2
    21    11    13 2
    22    11    14 1
    23    14    15 ar
    24    15    16 ar
    25    19    22 ar
    26    20    21 ar
    27    24    25 1
    28    25    26 1
    29    26    29 1
    30    27    28 1
    31    27    32 1
    32    28    33 1
    33    29    30 2
    34    29    31 1
    35    31    32 1
    36     1    34 1
    37     1    35 1
    38     4    36 1
    39     5    37 1
    40     7    38 1
    41     8    39 1
    42     9    40 1
    43    15    41 1
    44    16    42 1
    45    18    43 1
    46    20    44 1
    47    21    45 1
    48    22    46 1
    49    23    47 1
    50    26    48 1
    51    26    49 1
    52    27    50 1
    53    27    51 1
    54    28    52 1
    55    28    53 1
    56    31    54 1
    57    32    55 1
    58    32    56 1
    59    33    57 1
    60    58     1 1
@<TRIPOS>SUBSTRUCTURE
     1 DAW         1 TEMP              0 ****  ****    0 ROOT
