@<TRIPOS>MOLECULE
molecule
   45    47     1     0     0
SMALL
bcc


@<TRIPOS>ATOM
      1 C1           0.0000     0.0000     0.0000 ca         1 DAX      -0.001000
      2 C2           1.3620     0.0000     0.0000 ca         1 DAX      -0.157000
      3 C3           2.0920     0.0000     1.1800 ca         1 DAX       0.014000
      4 C4           1.4490    -0.0010     2.4110 ca         1 DAX      -0.226600
      5 C5          -2.6630    -0.0030     4.8970 ca         1 DAX      -0.098900
      6 C6          -4.0230    -0.0040     4.9410 ca         1 DAX       0.020000
      7 C7          -4.7800    -0.0030     3.7710 ca         1 DAX      -0.123000
      8 C8          -4.1800    -0.0030     2.5500 ca         1 DAX      -0.041000
      9 C9          -2.1270    -0.0020     1.2130 cc         1 DAX       0.366700
     10 N9          -2.8440    -0.0020     0.0390 nv         1 DAX      -0.657100
     11 N10         -0.6680    -0.0030     3.5970 na         1 DAX      -0.301800
     12 C11         -0.7170    -0.0010     1.2060 ca         1 DAX      -0.156000
     13 C12         -0.0170    -0.0080     2.4420 ca         1 DAX       0.152000
     14 C13         -2.7770    -0.0030     2.4650 ca         1 DAX      -0.135000
     15 C14         -2.0010    -0.0030     3.6530 ca         1 DAX       0.120000
     16 CD1          2.2250    -0.0020     3.6630 c          1 DAX       0.706700
     17 OD1          1.6550     0.1030     4.7320 o          1 DAX      -0.615100
     18 ND1          3.5670    -0.1190     3.6230 ns         1 DAX      -0.575900
     19 Br          -1.6630    -0.0040     6.5020 br         1 DAX      -0.015100
     20 CD2          4.3400    -0.1200     4.8680 c3         1 DAX       0.094000
     21 CD3          5.8280    -0.2630     4.5440 c3         1 DAX       0.079800
     22 ND2          6.6030    -0.2630     5.7930 nx         1 DAX      -0.652400
     23 CD7          8.0170    -0.5210     5.4910 c3         1 DAX       0.085600
     24 CD8          6.4720     1.0430     6.4510 c3         1 DAX       0.085600
     25 H1          -0.5360     0.0000    -0.9420 ha         1 DAX       0.179000
     26 H2           1.8900     0.0010    -0.9460 ha         1 DAX       0.175000
     27 H3           3.1740     0.0000     1.1410 ha         1 DAX       0.145000
     28 H6          -4.5250    -0.0040     5.9010 ha         1 DAX       0.185000
     29 H7          -5.8620    -0.0030     3.8350 ha         1 DAX       0.181000
     30 H8          -4.7800    -0.0020     1.6480 ha         1 DAX       0.177000
     31 H91         -3.1110    -0.8690    -0.3850 hn         1 DAX       0.322700
     32 H92         -3.1120     0.8650    -0.3850 hn         1 DAX       0.322700
     33 H10         -0.1460     0.0030     4.4500 hn         1 DAX       0.524800
     34 HD1          4.0330    -0.2340     2.7450 hn         1 DAX       0.332500
     35 HD21         4.0240    -0.9490     5.4880 h1         1 DAX       0.078200
     36 HD22         4.1730     0.8110     5.3960 h1         1 DAX       0.078200
     37 HD31         6.1440     0.5660     3.9230 hx         1 DAX       0.110700
     38 HD32         5.9940    -1.1940     4.0160 hx         1 DAX       0.110700
     39 HD2          6.2560    -0.9790     6.4000 hn         1 DAX       0.458800
     40 HD71         8.1080    -1.4640     4.9650 hx         1 DAX       0.108700
     41 HD72         8.4060     0.2780     4.8710 hx         1 DAX       0.108700
     42 HD73         8.5810    -0.5680     6.4150 hx         1 DAX       0.108700
     43 HD81         7.3390     1.2210     7.0750 hx         1 DAX       0.108700
     44 HD82         5.5780     1.0510     7.0630 hx         1 DAX       0.108700
     45 HD83         6.4020     1.8200     5.6990 hx         1 DAX       0.108700
@<TRIPOS>BOND
     1     1     2 ar
     2     1    12 ar
     3     1    25 1
     4     2     3 ar
     5     2    26 1
     6     3     4 ar
     7     3    27 1
     8     4    13 ar
     9     4    16 1
    10     5     6 ar
    11     5    15 ar
    12     5    19 1
    13     6     7 ar
    14     6    28 1
    15     7     8 ar
    16     7    29 1
    17     8    14 ar
    18     8    30 1
    19     9    10 2
    20     9    12 1
    21     9    14 1
    22    10    31 1
    23    10    32 1
    24    11    13 1
    25    11    15 1
    26    11    33 1
    27    12    13 ar
    28    14    15 ar
    29    16    17 2
    30    16    18 1
    31    18    20 1
    32    18    34 1
    33    20    21 1
    34    20    35 1
    35    20    36 1
    36    21    22 1
    37    21    37 1
    38    21    38 1
    39    22    23 1
    40    22    24 1
    41    22    39 1
    42    23    40 1
    43    23    41 1
    44    23    42 1
    45    24    43 1
    46    24    44 1
    47    24    45 1
@<TRIPOS>SUBSTRUCTURE
     1 DAX         1 TEMP              0 ****  ****    0 ROOT
