@<TRIPOS>MOLECULE
DAY
   72    77     1     0     0
SMALL
bcc


@<TRIPOS>ATOM
      1 C1          1.5390    0.1640    0.0870 c3        1 DAY      0.006900
      2 O1          0.2430   -0.3120   -2.9110 oh        1 DAY     -0.600800
      3 C2          2.1290   -0.2420    1.3620 cc        1 DAY     -0.243600
      4 C3          1.3690   -0.2670    2.5530 cd        1 DAY     -0.065100
      5 C4         -0.0410    0.0070    2.5520 cf        1 DAY     -0.102200
      6 C5         -0.6840    0.1420    1.3660 ce        1 DAY     -0.038200
      7 C6         -2.1210    0.4110    1.3170 ce        1 DAY     -0.086200
      8 C7         -2.7620    0.6570    0.1590 c2        1 DAY     -0.145200
      9 C8         -2.0880    0.6820   -1.1630 c3        1 DAY     -0.020500
     10 C9         -0.5800    0.9100   -0.9910 c3        1 DAY     -0.042700
     11 C10         0.0150   -0.0770    0.0320 c3        1 DAY      0.008200
     12 C11         0.1520    0.9860   -2.3410 c3        1 DAY      0.151100
     13 C12        -0.5000    1.9920   -3.3010 c3        1 DAY     -0.102400
     14 C13        -1.9930    1.7620   -3.4500 c3        1 DAY     -0.023000
     15 C14        -2.6230    1.8000   -2.0410 c3        1 DAY     -0.061700
     16 C15        -4.1170    1.9040   -2.3000 c3        1 DAY     -0.067400
     17 C16        -4.2400    2.7490   -3.5810 c3        1 DAY     -0.089700
     18 C17        -2.7960    2.9090   -4.1510 c3        1 DAY      0.053800
     19 C18        -2.2620    0.4690   -4.2040 c3        1 DAY     -0.110100
     20 C19        -0.2260   -1.5400   -0.3410 c3        1 DAY     -0.089100
     21 C20        -2.7730    2.7830   -5.6740 c         1 DAY      0.544100
     22 C21        -1.6630    3.5630   -6.3400 c3        1 DAY      0.033400
     23 N1          2.2520   -0.6350    3.5850 na        1 DAY      0.163300
     24 O2         -2.1810    4.1320   -3.7710 oh        1 DAY     -0.590800
     25 O3         -3.5980    2.1160   -6.2970 o         1 DAY     -0.487100
     26 O4         -1.4890    3.0680   -7.6540 oh        1 DAY     -0.575800
     27 C22         3.4600   -0.6120    1.7650 cc        1 DAY      0.312200
     28 N2          3.4950   -0.8450    3.1030 nd        1 DAY     -0.502800
     29 C23         2.4090   -1.8720    5.7030 ca        1 DAY     -0.127500
     30 C24         1.9150   -0.7790    4.9610 ca        1 DAY      0.025800
     31 C25         2.0680   -2.0020    7.0470 ca        1 DAY     -0.121500
     32 C26         1.2430   -1.0640    7.6650 ca        1 DAY     -0.131000
     33 C27         1.0960    0.1780    5.5930 ca        1 DAY     -0.127500
     34 C29         0.7620    0.0220    6.9360 ca        1 DAY     -0.121500
     35 C28        -2.8740    0.3950    2.5990 c3        1 DAY     -0.058900
     36 C30        -4.9350    4.0610   -3.3170 c3        1 DAY     -0.097100
     37 H1          1.7510    1.2610   -0.0590 hc        1 DAY      0.054700
     38 H4         -0.5580    0.0960    3.5190 ha        1 DAY      0.141000
     39 H1A         2.0140   -0.3880   -0.7690 hc        1 DAY      0.054700
     40 H7         -3.8480    0.8450    0.1410 ha        1 DAY      0.128000
     41 H8         -2.2590   -0.3140   -1.6630 hc        1 DAY      0.082700
     42 H9         -0.4480    1.9400   -0.5410 hc        1 DAY      0.056700
     43 H11         1.2090    1.3470   -2.1530 h1        1 DAY      0.033700
     44 H12         0.0010    1.9160   -4.3020 hc        1 DAY      0.057200
     45 H12A       -0.3210    3.0280   -2.9080 hc        1 DAY      0.057200
     46 H14        -2.3070    2.7780   -1.5670 hc        1 DAY      0.063700
     47 H15        -4.6430    2.3910   -1.4420 hc        1 DAY      0.049700
     48 H15A       -4.5700    0.8940   -2.4540 hc        1 DAY      0.049700
     49 H16        -4.8400    2.1720   -4.3400 hc        1 DAY      0.082700
     50 H18        -1.8840   -0.4130   -3.6350 hc        1 DAY      0.053033
     51 H18A       -3.3570    0.3380   -4.3840 hc        1 DAY      0.053033
     52 H18B       -1.7460    0.4930   -5.1960 hc        1 DAY      0.053033
     53 H19        -1.3180   -1.7680   -0.3460 hc        1 DAY      0.047367
     54 H19A        0.1950   -1.7690   -1.3480 hc        1 DAY      0.047367
     55 H19B        0.2720   -2.1990    0.4120 hc        1 DAY      0.047367
     56 H21        -0.7150    3.4450   -5.7470 h1        1 DAY      0.051200
     57 H21A       -1.9520    4.6500   -6.3550 h1        1 DAY      0.051200
     58 HO2        -2.7680    4.8480   -4.0440 ho        1 DAY      0.406000
     59 HO4        -0.8560    3.6560   -8.0830 ho        1 DAY      0.403000
     60 H22         4.3490   -0.7120    1.1430 h4        1 DAY      0.044100
     61 H23         3.0660   -2.6180    5.2300 ha        1 DAY      0.151000
     62 H25         2.4560   -2.8570    7.6210 ha        1 DAY      0.137000
     63 H26         0.9760   -1.1780    8.7260 ha        1 DAY      0.136000
     64 H27         0.7260    1.0530    5.0370 ha        1 DAY      0.151000
     65 H29         0.1180    0.7700    7.4230 ha        1 DAY      0.137000
     66 H28        -3.9690    0.5370    2.4260 hc        1 DAY      0.043367
     67 H28A       -2.5170    1.2170    3.2690 hc        1 DAY      0.043367
     68 H28B       -2.7270   -0.5810    3.1250 hc        1 DAY      0.043367
     69 H30        -4.9960    4.6710   -4.2510 hc        1 DAY      0.040367
     70 H30A       -5.9750    3.8700   -2.9570 hc        1 DAY      0.040367
     71 H30B       -4.3960    4.6490   -2.5340 hc        1 DAY      0.040367
     72 HO1         0.4920   -0.2010   -3.8360 ho        1 DAY      0.401000
@<TRIPOS>BOND
     1    1    3 1   
     2    1   11 1   
     3    1   37 1   
     4    1   39 1   
     5    2   12 1   
     6    2   72 1   
     7    3    4 2   
     8    3   27 1   
     9    4    5 1   
    10    4   23 1   
    11    5    6 2   
    12    5   38 1   
    13    6    7 1   
    14    6   11 1   
    15    7    8 2   
    16    7   35 1   
    17    8    9 1   
    18    8   40 1   
    19    9   10 1   
    20    9   15 1   
    21    9   41 1   
    22   10   11 1   
    23   10   12 1   
    24   10   42 1   
    25   11   20 1   
    26   12   13 1   
    27   12   43 1   
    28   13   14 1   
    29   13   44 1   
    30   13   45 1   
    31   14   15 1   
    32   14   18 1   
    33   14   19 1   
    34   15   16 1   
    35   15   46 1   
    36   16   17 1   
    37   16   47 1   
    38   16   48 1   
    39   17   18 1   
    40   17   36 1   
    41   17   49 1   
    42   18   21 1   
    43   18   24 1   
    44   19   50 1   
    45   19   51 1   
    46   19   52 1   
    47   20   53 1   
    48   20   54 1   
    49   20   55 1   
    50   21   22 1   
    51   21   25 2   
    52   22   26 1   
    53   22   56 1   
    54   22   57 1   
    55   23   28 1   
    56   23   30 1   
    57   24   58 1   
    58   26   59 1   
    59   27   28 2   
    60   27   60 1   
    61   29   30 ar  
    62   29   31 ar  
    63   29   61 1   
    64   30   33 ar  
    65   31   32 ar  
    66   31   62 1   
    67   32   34 ar  
    68   32   63 1   
    69   33   34 ar  
    70   33   64 1   
    71   34   65 1   
    72   35   66 1   
    73   35   67 1   
    74   35   68 1   
    75   36   69 1   
    76   36   70 1   
    77   36   71 1   
@<TRIPOS>SUBSTRUCTURE
     1 DAY         1 TEMP              0 ****  ****    0 ROOT
