@<TRIPOS>MOLECULE
molecule
   72    77     1     0     0
SMALL
bcc


@<TRIPOS>ATOM
      1 C1           0.0000     0.0000     0.0000 c3         1 DAY       0.021900
      2 O1          -3.1510    -0.5050     0.0860 oh         1 DAY      -0.600800
      3 C2           1.4980     0.0000     0.0000 cc         1 DAY      -0.298600
      4 C3           2.2650     0.0000     1.1570 cd         1 DAY      -0.030100
      5 C4           1.6480     0.0190     2.4840 cf         1 DAY      -0.121200
      6 C5           0.3000    -0.0060     2.5550 ce         1 DAY      -0.016200
      7 C6          -0.3200     0.1270     3.8870 ce         1 DAY      -0.102200
      8 C7          -1.6290     0.3200     4.0060 c2         1 DAY      -0.141200
      9 C8          -2.5490     0.3960     2.8310 c3         1 DAY      -0.036500
     10 C9          -1.7880     0.8160     1.5660 c3         1 DAY      -0.050700
     11 C10         -0.6010    -0.1250     1.3730 c3         1 DAY      -0.011800
     12 C11         -2.7000     0.8260     0.3470 c3         1 DAY       0.146100
     13 C12         -3.9200     1.7370     0.5860 c3         1 DAY      -0.079400
     14 C13         -4.6300     1.2370     1.8270 c3         1 DAY      -0.046000
     15 C14         -3.6630     1.4020     3.0330 c3         1 DAY      -0.059700
     16 C15         -4.6010     1.1410     4.2160 c3         1 DAY      -0.068400
     17 C16         -5.8930     1.9000     3.8110 c3         1 DAY      -0.090700
     18 C17         -5.8720     2.0060     2.2650 c3         1 DAY       0.069800
     19 C18         -4.9750    -0.2430     1.6600 c3         1 DAY      -0.102100
     20 C19         -1.2020    -1.5310     1.4410 c3         1 DAY      -0.109100
     21 C20         -7.1100     1.3760     1.6810 c          1 DAY       0.539100
     22 C21         -7.6150     1.8190     0.3320 c3         1 DAY       0.042400
     23 N1           3.5690    -0.0130     0.7860 na         1 DAY       0.160300
     24 O2          -5.7740     3.3740     1.8640 oh         1 DAY      -0.592800
     25 O3          -7.6950     0.5160     2.2930 o          1 DAY      -0.477100
     26 O4          -8.7910     1.0800    -0.0020 oh         1 DAY      -0.583800
     27 C22          2.3740    -0.0020    -1.0760 cc         1 DAY       0.347200
     28 N2           3.6050    -0.0100    -0.6170 nd         1 DAY      -0.509800
     29 C23          5.8220    -0.7270     1.2900 ca         1 DAY      -0.134500
     30 C24          4.6760    -0.0260     1.6440 ca         1 DAY       0.036800
     31 C25          6.9100    -0.7420     2.1400 ca         1 DAY      -0.115500
     32 C26          6.8590    -0.0610     3.3430 ca         1 DAY      -0.135000
     33 C27          4.6300     0.6610     2.8490 ca         1 DAY      -0.134500
     34 C29          5.7190     0.6370     3.6980 ca         1 DAY      -0.115500
     35 C28          0.5380     0.0400     5.1230 c3         1 DAY      -0.048900
     36 C30         -5.8980     3.2980     4.4330 c3         1 DAY      -0.081100
     37 H1          -0.3450     0.9260    -0.4440 hc         1 DAY       0.047700
     38 HO1         -3.2400    -0.6300    -0.8440 ho         1 DAY       0.394000
     39 H4           2.2410    -0.2110     3.3610 ha         1 DAY       0.146000
     40 H1A         -0.3450    -0.8300    -0.6040 hc         1 DAY       0.047700
     41 H7          -2.0480     0.4270     4.9990 ha         1 DAY       0.128000
     42 H8          -2.9860    -0.5810     2.6670 hc         1 DAY       0.096700
     43 H9          -1.4070     1.8190     1.7140 hc         1 DAY       0.064700
     44 H11         -2.1460     1.1930    -0.5080 h1         1 DAY       0.039700
     45 H12         -3.5900     2.7570     0.7390 hc         1 DAY       0.054700
     46 H12A        -4.5880     1.6850    -0.2650 hc         1 DAY       0.054700
     47 H14         -3.2690     2.4100     3.0700 hc         1 DAY       0.068700
     48 H15         -4.7980     0.0810     4.3200 hc         1 DAY       0.052200
     49 H15A        -4.1860     1.5520     5.1290 hc         1 DAY       0.052200
     50 H16         -6.7650     1.3430     4.1310 hc         1 DAY       0.078700
     51 H18         -5.4300    -0.4010     0.6890 hc         1 DAY       0.055700
     52 H18A        -5.6690    -0.5420     2.4360 hc         1 DAY       0.055700
     53 H18B        -4.0710    -0.8360     1.7350 hc         1 DAY       0.055700
     54 H19         -0.4090    -2.2660     1.3900 hc         1 DAY       0.050367
     55 H19A        -1.7430    -1.6470     2.3720 hc         1 DAY       0.050367
     56 H19B        -1.8810    -1.6740     0.6090 hc         1 DAY       0.050367
     57 H21         -6.8520     1.6410    -0.4160 h1         1 DAY       0.044700
     58 H21A        -7.8500     2.8760     0.3640 h1         1 DAY       0.044700
     59 HO2         -6.6290     3.7720     1.8930 ho         1 DAY       0.403000
     60 HO4         -9.1690     1.4300    -0.7920 ho         1 DAY       0.405000
     61 H22          2.0910     0.0010    -2.1210 h4         1 DAY       0.046100
     62 H25          7.8040    -1.2880     1.8650 ha         1 DAY       0.135500
     63 H26          7.7130    -0.0770     4.0090 ha         1 DAY       0.133000
     64 H27          3.7370     1.2080     3.1280 ha         1 DAY       0.150000
     65 H29          5.6830     1.1710     4.6400 ha         1 DAY       0.135500
     66 H28          1.1590    -0.8470     5.0700 hc         1 DAY       0.043033
     67 H28A        -0.0960    -0.0150     6.0000 hc         1 DAY       0.043033
     68 H28B         1.1690     0.9180     5.1870 hc         1 DAY       0.043033
     69 H30         -6.8100     3.8130     4.1560 hc         1 DAY       0.038033
     70 H30A        -5.0430     3.8570     4.0710 hc         1 DAY       0.038033
     71 H30B        -5.8440     3.2130     5.5110 hc         1 DAY       0.038033
     72 H23          5.8620    -1.2600     0.3480 ha         1 DAY       0.150000
@<TRIPOS>BOND
     1    11     1 1
     2     3     1 1
     3     1    37 1
     4     2    12 1
     5     2    38 1
     6     4     3 2
     7     3    27 1
     8     5     4 1
     9    23     4 1
    10     5     6 2
    11     5    39 1
    12     7     6 1
    13     6    11 1
    14     1    40 1
    15    35     7 1
    16     7     8 2
    17     8     9 1
    18     8    41 1
    19     9    15 1
    20     9    10 1
    21     9    42 1
    22    11    10 1
    23    10    12 1
    24    10    43 1
    25    20    11 1
    26    12    13 1
    27    12    44 1
    28    14    13 1
    29    13    45 1
    30    13    46 1
    31    15    14 1
    32    19    14 1
    33    14    18 1
    34    16    15 1
    35    15    47 1
    36    16    17 1
    37    16    48 1
    38    16    49 1
    39    36    17 1
    40    17    18 1
    41    17    50 1
    42    18    24 1
    43    18    21 1
    44    19    51 1
    45    19    52 1
    46    19    53 1
    47    20    54 1
    48    20    55 1
    49    20    56 1
    50    25    21 2
    51    21    22 1
    52    22    26 1
    53    22    57 1
    54    22    58 1
    55    30    23 1
    56    23    28 1
    57    24    59 1
    58    26    60 1
    59    28    27 2
    60    27    61 1
    61    31    29 ar
    62    29    30 ar
    63    29    72 1
    64    33    30 ar
    65    32    31 ar
    66    31    62 1
    67    32    34 ar
    68    32    63 1
    69    34    33 ar
    70    33    64 1
    71    34    65 1
    72    35    66 1
    73    35    67 1
    74    35    68 1
    75    36    69 1
    76    36    70 1
    77    36    71 1
@<TRIPOS>SUBSTRUCTURE
     1 DAY         1 TEMP              0 ****  ****    0 ROOT
