@<TRIPOS>MOLECULE
DB1
   19    19     1     0     0
SMALL
bcc


@<TRIPOS>ATOM
      1 O1           0.0000     0.0000     0.0000 oh         1 DB1      -0.466100
      2 O4           1.3800     0.0040     2.3830 oh         1 DB1      -0.478100
      3 O7           0.1140    -0.0150    -2.4990 o          1 DB1      -0.409100
      4 N1           2.0110    -0.0180    -3.6540 nz         1 DB1       0.198600
      5 C1           1.3570     0.0000     0.0000 ca         1 DB1       0.225100
      6 C4           2.0560     0.0000     1.2030 ca         1 DB1       0.088100
      7 C7           3.4390     0.0010     1.1990 ca         1 DB1      -0.049000
      8 C10          4.1350    -0.0050     0.0010 ca         1 DB1      -0.069000
      9 C13          3.4580    -0.0090    -1.1960 ca         1 DB1      -0.091000
     10 C16          2.0600    -0.0090    -1.2090 ca         1 DB1      -0.259600
     11 C19          1.3300    -0.0140    -2.4910 c          1 DB1       0.353700
     12 HO1         -0.3140    -0.8180     0.3480 ho         1 DB1       0.438000
     13 HO4          1.4620     0.8510     2.7890 ho         1 DB1       0.430000
     14 HN11         1.3650    -0.0200    -4.4190 hn         1 DB1       0.246133
     15 HN12         2.5860    -0.8360    -3.7020 hn         1 DB1       0.246133
     16 H7           3.9810     0.0040     2.1370 ha         1 DB1       0.136000
     17 H10          5.2190    -0.0050     0.0070 ha         1 DB1       0.130000
     18 H13          4.0080    -0.0140    -2.1300 ha         1 DB1       0.085000
     19 H131         2.5870     0.7990    -3.7060 hn         1 DB1       0.246133
@<TRIPOS>BOND
     1     1     5 1   
     2     1    12 1   
     3     2     6 1   
     4     2    13 1   
     5     3    11 2   
     6     4    11 1   
     7     4    14 1   
     8     4    15 1   
     9     4    19 1   
    10     5     6 ar  
    11     5    10 ar  
    12     6     7 ar  
    13     7     8 ar  
    14     7    16 1   
    15     8     9 ar  
    16     8    17 1   
    17     9    10 ar  
    18     9    18 1   
    19    10    11 1   
@<TRIPOS>SUBSTRUCTURE
     1 DB1         1 TEMP              0 ****  ****    0 ROOT
