@<TRIPOS>MOLECULE
molecule
   64    64     1     0     0
SMALL
bcc


@<TRIPOS>ATOM
      1 O10          0.0000     0.0000     0.0000 o          1 DB4      -0.570000
      2 C14          1.2080     0.0000     0.0000 c          1 DB4       0.631100
      3 C15          1.9610     0.0000     1.3050 c3         1 DB4      -0.128400
      4 C16          0.9670    -0.0000     2.4680 c3         1 DB4      -0.074400
      5 C17          1.7310    -0.0010     3.7930 c3         1 DB4      -0.094100
      6 O9           1.8800    -0.0060    -1.1620 os         1 DB4      -0.408900
      7 C9           1.0880    -0.0120    -2.3800 c3         1 DB4       0.121400
      8 C8           2.0210    -0.0180    -3.5930 c3         1 DB4       0.138100
      9 O7           2.7750    -1.2590    -3.6180 os         1 DB4      -0.398900
     10 C10          3.9510    -1.2710    -2.9710 c          1 DB4       0.638100
     11 O8           4.3370    -0.2780    -2.4020 o          1 DB4      -0.563000
     12 C11          4.7880    -2.5240    -2.9540 c3         1 DB4      -0.128400
     13 C12          6.0680    -2.2700    -2.1540 c3         1 DB4      -0.073400
     14 C13          6.9180    -3.5420    -2.1370 c3         1 DB4      -0.095100
     15 C7           1.1930     0.1020    -4.8740 c3         1 DB4       0.239400
     16 O13          2.0670     0.2140    -5.9990 os         1 DB4      -0.588200
     17 P1           1.5360     0.3560    -7.5120 p5         1 DB4       1.362800
     18 O11          0.6220    -0.7650    -7.8220 o          1 DB4      -0.828500
     19 O12          0.7470     1.7510    -7.6730 o          1 DB4      -0.828500
     20 O1           2.7870     0.3260    -8.5240 os         1 DB4      -0.598200
     21 C1           2.6380     0.3280    -9.9460 c3         1 DB4       0.229100
     22 C2           3.2730    -0.9360   -10.5270 c3         1 DB4       0.111100
     23 O2           4.6620    -0.9680   -10.1940 oh         1 DB4      -0.585800
     24 C3           3.1130    -0.9340   -12.0480 c3         1 DB4       0.120100
     25 O3           3.7050    -2.1160   -12.5910 oh         1 DB4      -0.553300
     26 C4           3.8060     0.2980   -12.6320 c3         1 DB4       0.228100
     27 O4           3.6560     0.3000   -14.0540 os         1 DB4      -0.569200
     28 P4           4.9070     0.2700   -15.0670 p5         1 DB4       1.193900
     29 O43          4.3760     0.4130   -16.5790 o          1 DB4      -0.916833
     30 O42          5.8220     1.3920   -14.7560 o          1 DB4      -0.916833
     31 O41          5.6960    -1.1240   -14.9040 o          1 DB4      -0.916833
     32 C5           3.1710     1.5640   -12.0520 c3         1 DB4       0.120100
     33 O5           3.8190     2.7150   -12.5970 oh         1 DB4      -0.553300
     34 C6           3.3310     1.5620   -10.5300 c3         1 DB4       0.111100
     35 O6           2.7390     2.7430    -9.9870 oh         1 DB4      -0.585800
     36 H1           2.5830     0.8850     1.3620 hc         1 DB4       0.069700
     37 H2           2.5840    -0.8840     1.3620 hc         1 DB4       0.069700
     38 H3           0.3430    -0.8850     2.4110 hc         1 DB4       0.054700
     39 H4           0.3440     0.8840     2.4110 hc         1 DB4       0.054700
     40 H5           2.3370    -0.8960     3.8600 hc         1 DB4       0.029033
     41 H6           1.0280     0.0210     4.6160 hc         1 DB4       0.029033
     42 H7           2.3710     0.8720     3.8410 hc         1 DB4       0.029033
     43 H8           0.4640     0.8730    -2.4090 h1         1 DB4       0.059200
     44 H9           0.4630    -0.8960    -2.4000 h1         1 DB4       0.059200
     45 H10          2.7060     0.8190    -3.5260 h1         1 DB4       0.091700
     46 H11          5.0450    -2.7990    -3.9700 hc         1 DB4       0.070700
     47 H12          4.2260    -3.3270    -2.4930 hc         1 DB4       0.070700
     48 H13          6.6290    -1.4670    -2.6160 hc         1 DB4       0.053700
     49 H14          5.8100    -1.9940    -1.1390 hc         1 DB4       0.053700
     50 H15          6.3500    -4.3500    -1.6920 hc         1 DB4       0.028700
     51 H16          7.1920    -3.8070    -3.1510 hc         1 DB4       0.028700
     52 H17          7.8150    -3.3680    -1.5550 hc         1 DB4       0.028700
     53 H18          0.5710    -0.7780    -4.9850 h1         1 DB4       0.042200
     54 H19          0.5650     0.9830    -4.8160 h1         1 DB4       0.042200
     55 H21          1.5850     0.3520   -10.2030 h1         1 DB4       0.053700
     56 H22          2.7790    -1.8080   -10.1160 h1         1 DB4       0.042700
     57 H23          4.8570    -1.7680    -9.7350 ho         1 DB4       0.379000
     58 H24          2.0590    -0.9060   -12.2980 h1         1 DB4       0.022200
     59 H25          3.0270    -2.7260   -12.8310 ho         1 DB4       0.370500
     60 H26          4.8580     0.2740   -12.3750 h1         1 DB4       0.083700
     61 H29          2.1170     1.5840   -12.3020 h1         1 DB4       0.022200
     62 H30          3.1720     3.2990   -12.9560 ho         1 DB4       0.370500
     63 H31          4.3850     1.5330   -10.2790 h1         1 DB4       0.042700
     64 H32          3.4170     3.3350    -9.7070 ho         1 DB4       0.379000
@<TRIPOS>BOND
     1     4     5 1
     2     4     3 1
     3     3     2 1
     4     2     1 2
     5     2     6 1
     6     6     7 1
     7     7     8 1
     8    11    10 2
     9     8     9 1
    10     8    15 1
    11    10     9 1
    12    10    12 1
    13    12    13 1
    14    15    16 1
    15    13    14 1
    16    16    17 1
    17    35    34 1
    18    33    32 1
    19    17    18 1
    20    17    20 1
    21    17    19 1
    22    32    34 1
    23    32    26 1
    24    34    21 1
    25    21    20 1
    26    21    22 1
    27    27    26 1
    28    27    28 1
    29    26    24 1
    30    24    22 1
    31    24    25 1
    32    22    23 1
    33    30    28 1
    34    28    29 1
    35    28    31 1
    36     3    36 1
    37     3    37 1
    38     4    38 1
    39     4    39 1
    40     5    40 1
    41     5    41 1
    42     5    42 1
    43     7    43 1
    44     7    44 1
    45     8    45 1
    46    12    46 1
    47    12    47 1
    48    13    48 1
    49    13    49 1
    50    14    50 1
    51    14    51 1
    52    14    52 1
    53    15    53 1
    54    15    54 1
    55    21    55 1
    56    22    56 1
    57    23    57 1
    58    24    58 1
    59    25    59 1
    60    26    60 1
    61    32    61 1
    62    33    62 1
    63    34    63 1
    64    35    64 1
@<TRIPOS>SUBSTRUCTURE
     1 DB4         1 TEMP              0 ****  ****    0 ROOT
