@<TRIPOS>MOLECULE
DB4
   64    64     1     0     0
SMALL
bcc


@<TRIPOS>ATOM
      1 O10         0.7230   -0.7950   -1.0170 o         1 DB4     -0.600000
      2 C14         1.5750    0.0080   -1.4180 c         1 DB4      0.666100
      3 C15         2.9480    0.2460   -0.8680 c3        1 DB4     -0.143400
      4 C16         3.0800   -0.2510    0.5530 c3        1 DB4     -0.074400
      5 C17         4.5030   -0.1410    1.0370 c3        1 DB4     -0.090100
      6 O9          1.2910    0.8370   -2.4560 os        1 DB4     -0.422900
      7 C9          0.2430    0.4750   -3.3710 c3        1 DB4      0.119400
      8 C8          0.8520    0.2200   -4.7490 c3        1 DB4      0.111100
      9 O7          1.1250   -1.1780   -4.9470 os        1 DB4     -0.459900
     10 C10         2.3770   -1.6350   -4.6020 c         1 DB4      0.682100
     11 O8          2.9230   -1.1150   -3.6220 o         1 DB4     -0.605000
     12 C11         2.8680   -2.7380   -5.4790 c3        1 DB4     -0.157400
     13 C12         4.1370   -3.3760   -4.9560 c3        1 DB4     -0.058400
     14 C13         4.8780   -4.0900   -6.0580 c3        1 DB4     -0.119100
     15 C7         -0.1770    0.5980   -5.8410 c3        1 DB4      0.202400
     16 O13        -0.1900    1.9730   -6.0100 os        1 DB4     -0.569200
     17 P1          0.2170    2.5560   -7.5200 p5        1 DB4      1.439800
     18 O11        -0.4970    1.6960   -8.4890 o         1 DB4     -0.838000
     19 O12         0.0430    4.0160   -7.4080 o         1 DB4     -0.838000
     20 O1          1.7980    2.1230   -7.4930 os        1 DB4     -0.579200
     21 C1          2.3230    1.3510   -8.5410 c3        1 DB4      0.179100
     22 C2          2.5910   -0.0850   -8.0320 c3        1 DB4      0.107100
     23 O2          3.2570   -0.0700   -6.7810 oh        1 DB4     -0.616800
     24 C3          3.3310   -0.9220   -9.0870 c3        1 DB4      0.105600
     25 O3          3.4780   -2.2410   -8.6010 oh        1 DB4     -0.682300
     26 C4          4.6910   -0.2890   -9.4390 c3        1 DB4      0.165100
     27 O4          5.3520   -1.0620  -10.3680 os        1 DB4     -0.561200
     28 P4          6.8690   -1.6540   -9.7760 p5        1 DB4      1.325900
     29 O43         7.4540   -2.4610  -10.8940 o         1 DB4     -0.923500
     30 O42         7.5200   -0.3270   -9.4710 o         1 DB4     -0.923500
     31 O41         6.3570   -2.4240   -8.5790 o         1 DB4     -0.923500
     32 C5          4.4460    1.1260   -9.9930 c3        1 DB4      0.105600
     33 O5          5.6680    1.7970  -10.2510 oh        1 DB4     -0.682300
     34 C6          3.6430    2.0000   -9.0080 c3        1 DB4      0.107100
     35 O6          3.3050    3.2290   -9.6490 oh        1 DB4     -0.616800
     36 H1          3.6550   -0.3010   -1.5560 hc        1 DB4      0.096700
     37 H2          3.1930    1.3380   -0.9350 hc        1 DB4      0.096700
     38 H3          2.7380   -1.3190    0.6030 hc        1 DB4      0.041200
     39 H4          2.4030    0.3410    1.2240 hc        1 DB4      0.041200
     40 H5          4.8490    0.9210    1.0070 hc        1 DB4      0.026367
     41 H6          5.1840   -0.7480    0.3920 hc        1 DB4      0.026367
     42 H7          4.5870   -0.5100    2.0880 hc        1 DB4      0.026367
     43 H8         -0.4090    1.3890   -3.4210 h1        1 DB4      0.066200
     44 H9         -0.3300   -0.4120   -3.0030 h1        1 DB4      0.066200
     45 H10         1.8010    0.8110   -4.8860 h1        1 DB4      0.119700
     46 H11         3.0730   -2.2710   -6.4990 hc        1 DB4      0.112700
     47 H12         2.0580   -3.4970   -5.6160 hc        1 DB4      0.112700
     48 H13         4.7970   -2.5790   -4.5180 hc        1 DB4      0.020200
     49 H14         3.8850   -4.0890   -4.1260 hc        1 DB4      0.020200
     50 H15         5.2570   -3.3660   -6.8400 hc        1 DB4      0.055033
     51 H16         4.2120   -4.8280   -6.5650 hc        1 DB4      0.055033
     52 H17         5.7560   -4.6360   -5.6350 hc        1 DB4      0.055033
     53 H18        -1.1980    0.2590   -5.5020 h1        1 DB4      0.029200
     54 H19         0.0790    0.0750   -6.8030 h1        1 DB4      0.029200
     55 H21         1.5860    1.3120   -9.3930 h1        1 DB4      0.065700
     56 H22         1.6140   -0.5970   -7.7990 h1        1 DB4      0.052700
     57 H23         4.1230    0.3320   -6.9220 ho        1 DB4      0.404000
     58 H24         2.6870   -0.9800  -10.0090 h1        1 DB4      0.031200
     59 H25         4.4410   -2.4670   -8.6490 ho        1 DB4      0.488500
     60 H26         5.3090   -0.2020   -8.4930 h1        1 DB4      0.051700
     61 H29         3.8890    1.0670  -10.9690 h1        1 DB4      0.031200
     62 H30         6.4000    1.1520  -10.0870 ho        1 DB4      0.488500
     63 H31         4.2760    2.2310   -8.1060 h1        1 DB4      0.052700
     64 H32         4.1230    3.5370  -10.0600 ho        1 DB4      0.404000
@<TRIPOS>BOND
     1    1    2 2   
     2    2    3 1   
     3    2    6 1   
     4    3    4 1   
     5    3   36 1   
     6    3   37 1   
     7    4    5 1   
     8    4   38 1   
     9    4   39 1   
    10    5   40 1   
    11    5   41 1   
    12    5   42 1   
    13    6    7 1   
    14    7    8 1   
    15    7   43 1   
    16    7   44 1   
    17    8    9 1   
    18    8   15 1   
    19    8   45 1   
    20    9   10 1   
    21   10   11 2   
    22   10   12 1   
    23   12   13 1   
    24   12   46 1   
    25   12   47 1   
    26   13   14 1   
    27   13   48 1   
    28   13   49 1   
    29   14   50 1   
    30   14   51 1   
    31   14   52 1   
    32   15   16 1   
    33   15   53 1   
    34   15   54 1   
    35   16   17 1   
    36   17   18 1   
    37   17   19 1   
    38   17   20 1   
    39   20   21 1   
    40   21   22 1   
    41   21   34 1   
    42   21   55 1   
    43   22   23 1   
    44   22   24 1   
    45   22   56 1   
    46   23   57 1   
    47   24   25 1   
    48   24   26 1   
    49   24   58 1   
    50   25   59 1   
    51   26   27 1   
    52   26   32 1   
    53   26   60 1   
    54   27   28 1   
    55   28   29 1   
    56   28   30 1   
    57   28   31 1   
    58   32   33 1   
    59   32   34 1   
    60   32   61 1   
    61   33   62 1   
    62   34   35 1   
    63   34   63 1   
    64   35   64 1   
@<TRIPOS>SUBSTRUCTURE
     1 DB4         1 TEMP              0 ****  ****    0 ROOT
