@<TRIPOS>MOLECULE
molecule
   42    42     1     0     0
SMALL
bcc


@<TRIPOS>ATOM
      1 C1           0.0000     0.0000     0.0000 ca         1 DB7      -0.071100
      2 C2           1.4080     0.0000     0.0000 ca         1 DB7      -0.071100
      3 C3           2.0950     0.0000     1.2110 ca         1 DB7      -0.094000
      4 C4           1.3950    -0.0000     2.4030 ca         1 DB7      -0.117500
      5 C5           0.0110     0.0000     2.4030 ca         1 DB7      -0.117500
      6 C6          -0.6890     0.0060     1.2100 ca         1 DB7      -0.094000
      7 C7          -0.7430     0.0000    -1.2780 c          1 DB7       0.643200
      8 C8           2.1520    -0.0010    -1.2770 c          1 DB7       0.643200
      9 C13          3.7620     0.8920    -2.7970 c3         1 DB7       0.149900
     10 C14          4.7570     2.0510    -2.8950 c3         1 DB7      -0.085900
     11 C15          5.4870     1.9840    -4.2390 c3         1 DB7      -0.081400
     12 C16          6.4810     3.1420    -4.3360 c3         1 DB7      -0.090100
     13 O9           3.0690     0.9550    -1.5230 os         1 DB7      -0.431400
     14 O11          1.9360    -0.8630    -2.1050 o          1 DB7      -0.515500
     15 O12         -0.1440     0.1090    -2.3300 o          1 DB7      -0.515500
     16 O10         -2.0850    -0.1190    -1.2770 os         1 DB7      -0.431400
     17 C17         -2.7490    -0.1100    -2.5690 c3         1 DB7       0.149900
     18 C18         -4.2590    -0.2550    -2.3680 c3         1 DB7      -0.085900
     19 C19         -4.9580    -0.2460    -3.7280 c3         1 DB7      -0.081400
     20 C20         -6.4680    -0.3910    -3.5270 c3         1 DB7      -0.090100
     21 H1           3.1780    -0.0000     1.2190 ha         1 DB7       0.152000
     22 H2           1.9330    -0.0020     3.3430 ha         1 DB7       0.138500
     23 H3          -0.5280     0.0030     3.3430 ha         1 DB7       0.138500
     24 H4          -1.7720     0.0060     1.2170 ha         1 DB7       0.152000
     25 H5           3.0420     0.9660    -3.6030 h1         1 DB7       0.052200
     26 H6           4.2940    -0.0480    -2.8730 h1         1 DB7       0.052200
     27 H7           5.4770     1.9770    -2.0890 hc         1 DB7       0.052700
     28 H8           4.2250     2.9910    -2.8190 hc         1 DB7       0.052700
     29 H9           4.7660     2.0580    -5.0450 hc         1 DB7       0.043950
     30 H10          6.0190     1.0440    -4.3150 hc         1 DB7       0.043950
     31 H11          6.9970     3.0960    -5.2870 hc         1 DB7       0.035367
     32 H12          7.2010     3.0690    -3.5300 hc         1 DB7       0.035367
     33 H13          5.9490     4.0830    -4.2600 hc         1 DB7       0.035367
     34 H14         -2.3840    -0.9360    -3.1670 h1         1 DB7       0.052200
     35 H15         -2.5400     0.8240    -3.0760 h1         1 DB7       0.052200
     36 H16         -4.4670    -1.1890    -1.8600 hc         1 DB7       0.052700
     37 H17         -4.6240     0.5710    -1.7690 hc         1 DB7       0.052700
     38 H18         -4.5930    -1.0720    -4.3270 hc         1 DB7       0.043950
     39 H19         -4.7490     0.6880    -4.2350 hc         1 DB7       0.043950
     40 H20         -6.6770    -1.3250    -3.0200 hc         1 DB7       0.035367
     41 H21         -6.9630    -0.3840    -4.4910 hc         1 DB7       0.035367
     42 H22         -6.8330     0.4350    -2.9280 hc         1 DB7       0.035367
@<TRIPOS>BOND
     1     4     5 ar
     2     4     3 ar
     3     5     6 ar
     4     3     2 ar
     5     6     1 ar
     6    11    12 1
     7    11    10 1
     8     2     1 ar
     9     2     8 1
    10     1     7 1
    11     9    10 1
    12     9    13 1
    13     8    13 1
    14     8    14 2
    15    20    19 1
    16     7    16 1
    17     7    15 2
    18    16    17 1
    19    19    18 1
    20    18    17 1
    21     3    21 1
    22     4    22 1
    23     5    23 1
    24     6    24 1
    25     9    25 1
    26     9    26 1
    27    10    27 1
    28    10    28 1
    29    11    29 1
    30    11    30 1
    31    12    31 1
    32    12    32 1
    33    12    33 1
    34    17    34 1
    35    17    35 1
    36    18    36 1
    37    18    37 1
    38    19    38 1
    39    19    39 1
    40    20    40 1
    41    20    41 1
    42    20    42 1
@<TRIPOS>SUBSTRUCTURE
     1 DB7         1 TEMP              0 ****  ****    0 ROOT
