@<TRIPOS>MOLECULE
DB7
   42    42     1     0     0
SMALL
bcc


@<TRIPOS>ATOM
      1 C1         -0.1520    0.5390   -0.2210 ca        1 DB7     -0.071100
      2 C2          1.2300    0.3210   -0.3270 ca        1 DB7     -0.071100
      3 C3          1.9960    0.1480    0.8310 ca        1 DB7     -0.091500
      4 C4          1.3860    0.1650    2.0850 ca        1 DB7     -0.116500
      5 C5          0.0090    0.3550    2.1890 ca        1 DB7     -0.116500
      6 C6         -0.7590    0.5420    1.0400 ca        1 DB7     -0.091500
      7 C7         -0.9790    0.8060   -1.4150 c         1 DB7      0.645700
      8 C8          1.8930    0.2310   -1.6440 c         1 DB7      0.645700
      9 C13         3.7600    0.9030   -2.9640 c3        1 DB7      0.139400
     10 C14         4.9790    1.7880   -2.7880 c3        1 DB7     -0.086400
     11 C15         5.7760    1.8390   -4.0740 c3        1 DB7     -0.079400
     12 C16         6.9950    2.7120   -3.9270 c3        1 DB7     -0.092100
     13 O9          3.0730    0.9210   -1.6980 os        1 DB7     -0.434900
     14 O11         1.5340   -0.4010   -2.6380 o         1 DB7     -0.521000
     15 O12        -0.7350    1.5540   -2.3620 o         1 DB7     -0.521000
     16 O10        -2.1770    0.1450   -1.3960 os        1 DB7     -0.434900
     17 C17        -3.0240    0.3360   -2.5460 c3        1 DB7      0.139400
     18 C18        -4.2400   -0.5410   -2.3160 c3        1 DB7     -0.086400
     19 C19        -5.2000   -0.4150   -3.4800 c3        1 DB7     -0.079400
     20 C20        -6.4200   -1.2760   -3.2770 c3        1 DB7     -0.092100
     21 H1          3.0850    0.0030    0.7410 ha        1 DB7      0.155500
     22 H2          1.9950    0.0270    2.9910 ha        1 DB7      0.143000
     23 H3         -0.4750    0.3600    3.1770 ha        1 DB7      0.143000
     24 H4         -1.8490    0.6880    1.1130 ha        1 DB7      0.155500
     25 H5          4.0400   -0.1550   -3.2050 h1        1 DB7      0.055700
     26 H6          3.0690    1.2930   -3.7570 h1        1 DB7      0.055700
     27 H7          4.6530    2.8190   -2.4930 hc        1 DB7      0.054700
     28 H8          5.6150    1.3890   -1.9550 hc        1 DB7      0.054700
     29 H9          5.1270    2.2330   -4.9010 hc        1 DB7      0.042200
     30 H10         6.0870    0.8010   -4.3650 hc        1 DB7      0.042200
     31 H11         6.7020    3.7570   -3.6620 hc        1 DB7      0.035033
     32 H12         7.6650    2.3220   -3.1240 hc        1 DB7      0.035033
     33 H13         7.5690    2.7390   -4.8850 hc        1 DB7      0.035033
     34 H14        -2.4590    0.0370   -3.4660 h1        1 DB7      0.055700
     35 H15        -3.2960    1.4210   -2.6150 h1        1 DB7      0.055700
     36 H16        -3.9150   -1.6070   -2.1960 hc        1 DB7      0.054700
     37 H17        -4.7470   -0.2380   -1.3630 hc        1 DB7      0.054700
     38 H18        -5.5100    0.6570   -3.5970 hc        1 DB7      0.042200
     39 H19        -4.6800   -0.7150   -4.4280 hc        1 DB7      0.042200
     40 H20        -6.1330   -2.3510   -3.1820 hc        1 DB7      0.035033
     41 H21        -6.9650   -0.9760   -2.3490 hc        1 DB7      0.035033
     42 H22        -7.1160   -1.1710   -4.1440 hc        1 DB7      0.035033
@<TRIPOS>BOND
     1    1    2 ar  
     2    1    6 ar  
     3    1    7 1   
     4    2    3 ar  
     5    2    8 1   
     6    3    4 ar  
     7    3   21 1   
     8    4    5 ar  
     9    4   22 1   
    10    5    6 ar  
    11    5   23 1   
    12    6   24 1   
    13    7   15 2   
    14    7   16 1   
    15    8   13 1   
    16    8   14 2   
    17    9   10 1   
    18    9   13 1   
    19    9   25 1   
    20    9   26 1   
    21   10   11 1   
    22   10   27 1   
    23   10   28 1   
    24   11   12 1   
    25   11   29 1   
    26   11   30 1   
    27   12   31 1   
    28   12   32 1   
    29   12   33 1   
    30   16   17 1   
    31   17   18 1   
    32   17   34 1   
    33   17   35 1   
    34   18   19 1   
    35   18   36 1   
    36   18   37 1   
    37   19   20 1   
    38   19   38 1   
    39   19   39 1   
    40   20   40 1   
    41   20   41 1   
    42   20   42 1   
@<TRIPOS>SUBSTRUCTURE
     1 DB7         1 TEMP              0 ****  ****    0 ROOT
