@<TRIPOS>MOLECULE
molecule
   65    68     1     0     0
SMALL
bcc


@<TRIPOS>ATOM
      1 CAA          0.0000     0.0000     0.0000 c3         1 DB8       0.049700
      2 CAC          7.7620    -0.0620    -0.9830 c3         1 DB8       0.170800
      3 NAD          0.6180    -0.0140     8.2510 n1         1 DB8      -0.373800
      4 Cl1         -3.2340     2.2600     9.3140 cl         1 DB8      -0.077400
      5 Cl2          0.0800     2.9430     5.1040 cl         1 DB8      -0.081400
      6 CAH          3.2870     0.0060     5.9970 ca         1 DB8       0.467200
      7 CAI         -1.5840     2.4250     7.1750 ca         1 DB8      -0.065000
      8 CAJ         -1.6810    -0.2990     6.6590 ca         1 DB8      -0.252000
      9 CAK          4.0930    -0.0090     2.4930 ca         1 DB8      -0.275300
     10 CAL          1.2960     0.0010     2.3530 ca         1 DB8      -0.176000
     11 CAM          6.2380    -0.0490    -1.1260 c3         1 DB8      -0.071400
     12 CAN          5.5960    -0.0360     0.2630 c3         1 DB8       0.114400
     13 CAO         10.9780    -1.1120    -5.3830 c3         1 DB8       0.188100
     14 CAP          8.0850    -1.3310    -3.0190 c3         1 DB8       0.137300
     15 CAQ          9.8270     0.1520    -2.2290 c3         1 DB8       0.137300
     16 CAR          8.6760    -1.2720    -4.4310 c3         1 DB8       0.194800
     17 CAS         10.4180     0.2100    -3.6400 c3         1 DB8       0.194800
     18 NAT          3.9580     0.0000     4.8730 nb         1 DB8      -0.721000
     19 OAV          1.4290     0.0000     0.0000 os         1 DB8      -0.290900
     20 CAX         -2.3930     0.2320     7.7240 ca         1 DB8       0.193100
     21 CAY         -2.3430     1.5950     7.9800 ca         1 DB8       0.000400
     22 CAZ         -0.8720     1.8990     6.1140 ca         1 DB8      -0.010600
     23 CBA          1.8830     0.0050     6.0160 ca         1 DB8      -0.194300
     24 CBB         -0.9200     0.5340     5.8520 ca         1 DB8       0.180600
     25 CBC          2.0460     0.0010     1.2120 ca         1 DB8       0.121100
     26 CBD          3.4470    -0.0110     1.2780 ca         1 DB8       0.173100
     27 CBE          1.1800     0.0030     4.8020 ca         1 DB8       0.223600
     28 CBF          3.3450    -0.0010     3.6800 ca         1 DB8       0.447600
     29 CBG          1.9310     0.0030     3.6040 ca         1 DB8      -0.170300
     30 NBH          8.3770    -0.0740    -2.3170 n3         1 DB8      -0.735600
     31 NBI         10.1250    -1.0470    -4.3430 n3         1 DB8      -0.796600
     32 C01         -3.2370    -1.9540     8.1270 c3         1 DB8       0.129700
     33 HAA         -0.5550    -0.1310    -0.9210 h1         1 DB8       0.061367
     34 HAAA        -0.1430    -1.0670    -0.1210 h1         1 DB8       0.061367
     35 HAAB        -0.6050     0.6280     0.6430 h1         1 DB8       0.061367
     36 HAC          8.3010     0.6320    -0.3500 h1         1 DB8       0.026200
     37 HACA         8.0800    -0.9590    -0.4670 h1         1 DB8       0.026200
     38 HAH          4.1290    -0.0830     6.6720 h4         1 DB8       0.053100
     39 HAI         -1.3210     3.3970     7.5750 ha         1 DB8       0.167000
     40 HAJ         -1.4240    -1.3510     6.6580 ha         1 DB8       0.153000
     41 HAK          5.0910    -0.4000     2.6470 ha         1 DB8       0.166000
     42 HAL          0.2340    -0.0570     2.1510 ha         1 DB8       0.152000
     43 HAM          5.8950     0.8190    -1.6750 hc         1 DB8       0.066700
     44 HAMA         5.7380    -0.8850    -1.6000 hc         1 DB8       0.066700
     45 HAN          5.9500    -0.9540     0.7150 h1         1 DB8       0.060200
     46 HANA         5.5330     0.9210     0.7670 h1         1 DB8       0.060200
     47 HAO         11.9820    -0.9840    -4.9970 h1         1 DB8       0.032700
     48 HAOA        10.7000    -1.8640    -6.1120 h1         1 DB8       0.032700
     49 HAOB        10.4230    -0.3200    -5.8710 h1         1 DB8       0.032700
     50 HAP          7.0500    -1.5490    -2.7870 h1         1 DB8       0.045200
     51 HAPA         8.6150    -2.2500    -2.7990 h1         1 DB8       0.045200
     52 HAQ          9.9880    -0.4310    -1.3310 h1         1 DB8       0.045200
     53 HAQA         9.7560     1.1860    -1.9150 h1         1 DB8       0.045200
     54 HAR          8.4410    -2.3100    -4.6360 h1         1 DB8       0.043950
     55 HARA         7.8770    -0.7730    -4.9650 h1         1 DB8       0.043950
     56 HAS         10.0670     0.7310    -4.5220 h1         1 DB8       0.043950
     57 HASA        11.4500     0.4990    -3.4820 h1         1 DB8       0.043950
     58 HNAU        -0.4470    -0.8030     4.2370 hn         1 DB8       0.441800
     59 H01         -3.9090    -2.6310     8.6420 h1         1 DB8       0.046033
     60 H01A        -3.6240    -1.7400     7.1380 h1         1 DB8       0.046033
     61 H01B        -2.2330    -2.3240     7.9580 h1         1 DB8       0.046033
     62 CAG          1.1760     0.0050     7.2620 cg         1 DB8       0.248800
     63 NAU         -0.2010     0.0020     4.7770 nu         1 DB8      -0.644000
     64 OAW          4.1740    -0.0240     0.1300 os         1 DB8      -0.337900
     65 O02         -3.1400    -0.5820     8.5150 os         1 DB8      -0.316900
@<TRIPOS>BOND
     1     1    19 1
     2     1    33 1
     3     1    34 1
     4     1    35 1
     5    20    65 1
     6    32    65 1
     7    30     2 1
     8    11     2 1
     9     2    36 1
    10     2    37 1
    11    62     3 3
    12     4    21 1
    13     5    22 1
    14    23    62 1
    15    23     6 ar
    16    18     6 ar
    17     6    38 1
    18     7    22 ar
    19     7    21 ar
    20     7    39 1
    21    24     8 ar
    22    20     8 ar
    23     8    40 1
    24    26     9 ar
    25     9    28 ar
    26     9    41 1
    27    25    10 ar
    28    10    29 ar
    29    10    42 1
    30    11    12 1
    31    11    43 1
    32    11    44 1
    33    64    12 1
    34    12    45 1
    35    12    46 1
    36    13    31 1
    37    13    47 1
    38    13    48 1
    39    13    49 1
    40    30    14 1
    41    16    14 1
    42    14    50 1
    43    14    51 1
    44    17    15 1
    45    15    30 1
    46    15    52 1
    47    15    53 1
    48    31    16 1
    49    16    54 1
    50    16    55 1
    51    17    31 1
    52    17    56 1
    53    17    57 1
    54    28    18 ar
    55    24    63 1
    56    63    27 1
    57    63    58 1
    58    19    25 1
    59    64    26 1
    60    21    20 ar
    61    22    24 ar
    62    27    23 ar
    63    25    26 ar
    64    29    27 ar
    65    29    28 ar
    66    32    59 1
    67    32    60 1
    68    32    61 1
@<TRIPOS>SUBSTRUCTURE
     1 DB8         1 TEMP              0 ****  ****    0 ROOT
