@<TRIPOS>MOLECULE
DB8
   65    68     1     0     0
SMALL
bcc


@<TRIPOS>ATOM
      1 CAA          0.0000     0.0000     0.0000 c3         1 DB8       0.161700
      2 CAC          7.7620    -0.0620    -0.9830 c3         1 DB8       0.177800
      3 NAD          0.6180    -0.0140     8.2510 n1         1 DB8      -0.399800
      4 Cl1         -3.2340     2.2600     9.3140 cl         1 DB8       0.007600
      5 Cl2          0.0800     2.9430     5.1040 cl         1 DB8      -0.000400
      6 CAH          3.2870     0.0060     5.9970 ca         1 DB8       0.446200
      7 CAI         -1.5840     2.4250     7.1750 ca         1 DB8      -0.044000
      8 CAJ         -1.6810    -0.2990     6.6590 ca         1 DB8      -0.236000
      9 CAK          4.0930    -0.0090     2.4930 ca         1 DB8      -0.266300
     10 CAL          1.2960     0.0010     2.3530 ca         1 DB8      -0.176000
     11 CAM          6.2380    -0.0490    -1.1260 c3         1 DB8      -0.026400
     12 CAN          5.5960    -0.0360     0.2630 c3         1 DB8       0.169400
     13 CAO         10.9780    -1.1120    -5.3830 c3         1 DB8       0.187100
     14 CAP          8.0850    -1.3310    -3.0190 c3         1 DB8       0.124800
     15 CAQ          9.8270     0.1520    -2.2290 c3         1 DB8       0.124800
     16 CAR          8.6760    -1.2720    -4.4310 c3         1 DB8       0.156800
     17 CAS         10.4180     0.2100    -3.6400 c3         1 DB8       0.156800
     18 NAT          3.9580     0.0000     4.8730 nb         1 DB8      -0.635000
     19 OAV          1.4290     0.0000     0.0000 os         1 DB8      -0.265900
     20 CAX         -2.3930     0.2320     7.7240 ca         1 DB8       0.204100
     21 CAY         -2.3430     1.5950     7.9800 ca         1 DB8      -0.069600
     22 CAZ         -0.8720     1.8990     6.1140 ca         1 DB8      -0.074600
     23 CBA          1.8830     0.0050     6.0160 ca         1 DB8      -0.142300
     24 CBB         -0.9200     0.5340     5.8520 ca         1 DB8       0.033600
     25 CBC          2.0460     0.0010     1.2120 ca         1 DB8       0.124100
     26 CBD          3.4470    -0.0110     1.2780 ca         1 DB8       0.178100
     27 CBE          1.1800     0.0030     4.8020 ca         1 DB8       0.078600
     28 CBF          3.3450    -0.0010     3.6800 ca         1 DB8       0.416600
     29 CBG          1.9310     0.0030     3.6040 ca         1 DB8      -0.156300
     30 NBH          8.3770    -0.0740    -2.3170 n3         1 DB8      -0.561600
     31 NBI         10.1250    -1.0470    -4.3430 n3         1 DB8      -0.535600
     32 C01         -3.2370    -1.9540     8.1270 c3         1 DB8       0.236700
     33 HAA         -0.5550    -0.1310    -0.9210 h1         1 DB8       0.017367
     34 HAAA        -0.1430    -1.0670    -0.1210 h1         1 DB8       0.017367
     35 HAAB        -0.6050     0.6280     0.6430 h1         1 DB8       0.017367
     36 HAC          8.3010     0.6320    -0.3500 h1         1 DB8      -0.000800
     37 HACA         8.0800    -0.9590    -0.4670 h1         1 DB8      -0.000800
     38 HAH          4.1290    -0.0830     6.6720 h4         1 DB8       0.009100
     39 HAI         -1.3210     3.3970     7.5750 ha         1 DB8       0.130000
     40 HAJ         -1.4240    -1.3510     6.6580 ha         1 DB8       0.136000
     41 HAK          5.0910    -0.4000     2.6470 ha         1 DB8       0.144000
     42 HAL          0.2340    -0.0570     2.1510 ha         1 DB8       0.136000
     43 HAM          5.8950     0.8190    -1.6750 hc         1 DB8       0.033700
     44 HAMA         5.7380    -0.8850    -1.6000 hc         1 DB8       0.033700
     45 HAN          5.9500    -0.9540     0.7150 h1         1 DB8       0.028700
     46 HANA         5.5330     0.9210     0.7670 h1         1 DB8       0.028700
     47 HAO         11.9820    -0.9840    -4.9970 h1         1 DB8       0.003700
     48 HAOA        10.7000    -1.8640    -6.1120 h1         1 DB8       0.003700
     49 HAOB        10.4230    -0.3200    -5.8710 h1         1 DB8       0.003700
     50 HAP          7.0500    -1.5490    -2.7870 h1         1 DB8       0.021700
     51 HAPA         8.6150    -2.2500    -2.7990 h1         1 DB8       0.021700
     52 HAQ          9.9880    -0.4310    -1.3310 h1         1 DB8       0.021700
     53 HAQA         9.7560     1.1860    -1.9150 h1         1 DB8       0.021700
     54 HAR          8.4410    -2.3100    -4.6360 h1         1 DB8       0.018200
     55 HARA         7.8770    -0.7730    -4.9650 h1         1 DB8       0.018200
     56 HAS         10.0670     0.7310    -4.5220 h1         1 DB8       0.018200
     57 HASA        11.4500     0.4990    -3.4820 h1         1 DB8       0.018200
     58 HNAU        -0.4470    -0.8030     4.2370 hn         1 DB8       0.287800
     59 H01         -3.9090    -2.6310     8.6420 h1         1 DB8       0.002700
     60 H01A        -3.6240    -1.7400     7.1380 h1         1 DB8       0.002700
     61 H01B        -2.2330    -2.3240     7.9580 h1         1 DB8       0.002700
     62 CAG          1.1760     0.0050     7.2620 cg         1 DB8       0.249800
     63 NAU         -0.2010     0.0020     4.7770 nu         1 DB8      -0.232000
     64 OAW          4.1740    -0.0240     0.1300 os         1 DB8      -0.314900
     65 O02         -3.1400    -0.5820     8.5150 os         1 DB8      -0.297900
@<TRIPOS>BOND
     1     1    19 1   
     2     1    33 1   
     3     1    34 1   
     4     1    35 1   
     5     2    11 1   
     6     2    30 1   
     7     2    36 1   
     8     2    37 1   
     9     3    62 3   
    10     4    21 1   
    11     5    22 1   
    12     6    18 ar  
    13     6    23 ar  
    14     6    38 1   
    15     7    21 ar  
    16     7    22 ar  
    17     7    39 1   
    18     8    20 ar  
    19     8    24 ar  
    20     8    40 1   
    21     9    26 ar  
    22     9    28 ar  
    23     9    41 1   
    24    10    25 ar  
    25    10    29 ar  
    26    10    42 1   
    27    11    12 1   
    28    11    43 1   
    29    11    44 1   
    30    12    45 1   
    31    12    46 1   
    32    12    64 1   
    33    13    31 1   
    34    13    47 1   
    35    13    48 1   
    36    13    49 1   
    37    14    16 1   
    38    14    30 1   
    39    14    50 1   
    40    14    51 1   
    41    15    17 1   
    42    15    30 1   
    43    15    52 1   
    44    15    53 1   
    45    16    31 1   
    46    16    54 1   
    47    16    55 1   
    48    17    31 1   
    49    17    56 1   
    50    17    57 1   
    51    18    28 ar  
    52    19    25 1   
    53    20    21 ar  
    54    20    65 1   
    55    22    24 ar  
    56    23    27 ar  
    57    23    62 1   
    58    24    63 1   
    59    25    26 ar  
    60    26    64 1   
    61    27    29 ar  
    62    27    63 1   
    63    28    29 ar  
    64    32    59 1   
    65    32    60 1   
    66    32    61 1   
    67    32    65 1   
    68    58    63 1   
@<TRIPOS>SUBSTRUCTURE
     1 DB8         1 TEMP              0 ****  ****    0 ROOT
