@<TRIPOS>MOLECULE
molecule
   47    50     1     0     0
SMALL
bcc


@<TRIPOS>ATOM
      1 C1           0.0000     0.0000     0.0000 ca         1 DB9      -0.075000
      2 C2           1.3950     0.0000     0.0000 ca         1 DB9      -0.193900
      3 C3           2.0910     0.0000     1.2090 ca         1 DB9      -0.075000
      4 C4           1.3940    -0.0010     2.4160 ca         1 DB9      -0.113000
      5 C5          -0.0000    -0.0000     2.4150 cp         1 DB9       0.032000
      6 C6          -0.6980    -0.0010     1.2080 ca         1 DB9      -0.113000
      7 C7          -0.7230     0.0010     3.6690 cp         1 DB9      -0.070000
      8 C8          -0.1650     0.6050     4.7950 ca         1 DB9      -0.082000
      9 C9          -0.8610     0.6070     6.0040 ca         1 DB9      -0.114000
     10 C10         -2.1160     0.0030     6.0870 ca         1 DB9      -0.049000
     11 C11         -2.6740    -0.6020     4.9600 ca         1 DB9      -0.137900
     12 C12         -1.9780    -0.6040     3.7520 ca         1 DB9      -0.107000
     13 C13          2.1230    -0.0010    -1.2590 ce         1 DB9       0.546800
     14 N14          3.5100    -0.0010    -1.3660 nz         1 DB9      -0.801600
     15 N15          1.4250    -0.0000    -2.3750 n2         1 DB9      -0.693100
     16 C16         -3.9720    -1.2270     5.0460 cc         1 DB9       0.510400
     17 N17         -4.8180    -1.2890     3.9750 na         1 DB9      -0.254300
     18 C18         -5.9580    -1.9360     4.3780 ca         1 DB9      -0.092200
     19 C19         -5.7290    -2.2380     5.7180 ca         1 DB9       0.116400
     20 N20         -4.4900    -1.7900     6.1150 nd         1 DB9      -0.551100
     21 C21         -6.7200    -2.9160     6.4460 ca         1 DB9      -0.033000
     22 C22         -7.9090    -3.2630     5.7930 ca         1 DB9      -0.162000
     23 C23         -8.1110    -2.9460     4.4480 ca         1 DB9      -0.181900
     24 C24         -7.1350    -2.2720     3.7070 ca         1 DB9      -0.022000
     25 C25         -9.3600    -3.3240     3.8020 ce         1 DB9       0.551800
     26 N26        -10.4000    -3.9940     4.4340 nz         1 DB9      -0.800600
     27 N27         -9.5150    -3.0090     2.5330 n2         1 DB9      -0.707100
     28 H1          -0.5420    -0.0000    -0.9380 ha         1 DB9       0.143500
     29 H3           3.1750    -0.0000     1.2090 ha         1 DB9       0.143500
     30 H4           1.9350    -0.0010     3.3550 ha         1 DB9       0.160000
     31 H6          -1.7810    -0.0010     1.2070 ha         1 DB9       0.160000
     32 H8           0.7970     1.0990     4.7230 ha         1 DB9       0.146000
     33 H9          -0.4370     1.0960     6.8720 ha         1 DB9       0.162000
     34 H10         -2.6750     0.0420     7.0140 ha         1 DB9       0.169000
     35 H12         -2.2210    -1.4180     3.0800 ha         1 DB9       0.141000
     36 H141         3.8790     0.8170    -0.9220 hn         1 DB9       0.467467
     37 H142         3.7700    -0.0020    -2.3320 hn         1 DB9       0.467467
     38 HN15         1.8940    -0.0010    -3.2590 hn         1 DB9       0.432400
     39 HN17        -4.6680    -0.8640     3.0810 hn         1 DB9       0.318700
     40 H21         -6.5690    -3.1640     7.4890 ha         1 DB9       0.176000
     41 H22         -8.6840    -3.7870     6.3400 ha         1 DB9       0.114000
     42 H24         -7.2850    -2.0230     2.6640 ha         1 DB9       0.173000
     43 H261       -10.7300    -3.4470     5.2040 hn         1 DB9       0.467467
     44 H262       -10.0730    -4.8790     4.7690 hn         1 DB9       0.467467
     45 HN27       -10.3610    -3.2520     2.0560 hn         1 DB9       0.430400
     46 H143         3.8780    -0.8250    -0.9330 hn         1 DB9       0.467467
     47 H263       -11.1470    -4.1390     3.7840 hn         1 DB9       0.467467
@<TRIPOS>BOND
     1     1     2 ar
     2     1     6 ar
     3     1    28 1
     4     2    13 1
     5     2     3 ar
     6     3     4 ar
     7     3    29 1
     8     4     5 ar
     9     4    30 1
    10     5     6 ar
    11     5     7 1
    12     6    31 1
    13     7     8 ar
    14     7    12 ar
    15     8     9 ar
    16     8    32 1
    17     9    10 ar
    18     9    33 1
    19    10    11 ar
    20    10    34 1
    21    11    12 ar
    22    11    16 1
    23    12    35 1
    24    13    14 1
    25    13    15 2
    26    14    36 1
    27    14    37 1
    28    15    38 1
    29    16    17 1
    30    16    20 2
    31    17    18 1
    32    17    39 1
    33    18    19 ar
    34    18    24 ar
    35    19    20 1
    36    19    21 ar
    37    21    22 ar
    38    21    40 1
    39    22    23 ar
    40    22    41 1
    41    23    24 ar
    42    23    25 1
    43    24    42 1
    44    25    26 1
    45    25    27 2
    46    26    43 1
    47    26    44 1
    48    27    45 1
    49    46    14 1
    50    47    26 1
@<TRIPOS>SUBSTRUCTURE
     1 DB9         1 TEMP              0 ****  ****    0 ROOT
