@<TRIPOS>MOLECULE
DBA
   24    24     1     0     0
SMALL
bcc


@<TRIPOS>ATOM
      1 C1         -0.0580   -0.6590    0.3960 c         1 DBA      0.917600
      2 C2          1.3240   -0.1080   -0.0410 c3        1 DBA      0.002400
      3 C1'         3.3700    0.2240    1.1100 ca        1 DBA      0.127100
      4 C2'         3.9430   -1.0460    1.3250 ca        1 DBA     -0.093300
      5 C3'         5.3350   -1.1490    1.4090 ca        1 DBA     -0.139500
      6 C4'         6.1450   -0.0220    1.2860 ca        1 DBA     -0.161000
      7 C5'         5.5710    1.2300    1.0800 ca        1 DBA     -0.139500
      8 C6'         4.1840    1.3690    0.9870 ca        1 DBA     -0.093300
      9 CM2         3.1030   -2.2570    1.4720 c3        1 DBA     -0.063800
     10 CM6         3.5760    2.7040    0.7830 c3        1 DBA     -0.063800
     11 O1         -0.0790   -1.6820    1.1340 o         1 DBA     -0.829800
     12 O2         -1.0740   -0.0770   -0.0710 o         1 DBA     -0.829800
     13 O1'         1.9990    0.4030    1.1230 os        1 DBA     -0.329900
     14 H21         1.2110    0.7510   -0.7510 h1        1 DBA      0.021200
     15 H22         1.9130   -0.9290   -0.5210 h1        1 DBA      0.021200
     16 H3'         5.7900   -2.1350    1.5790 ha        1 DBA      0.114000
     17 H4'         7.2370   -0.1210    1.3540 ha        1 DBA      0.110000
     18 H5'         6.2110    2.1190    0.9860 ha        1 DBA      0.114000
     19 HM21        3.1870   -2.8940    0.5560 hc        1 DBA      0.052367
     20 HM22        3.4430   -2.8600    2.3500 hc        1 DBA      0.052367
     21 HM23        2.0160   -1.9910    1.6120 hc        1 DBA      0.052367
     22 HM61        3.4400    3.2150    1.7690 hc        1 DBA      0.052367
     23 HM62        2.5680    2.6050    0.3050 hc        1 DBA      0.052367
     24 HM63        4.2250    3.3450    0.1390 hc        1 DBA      0.052367
@<TRIPOS>BOND
     1    1    2 1   
     2    1   11 1   
     3    1   12 1   
     4    2   13 1   
     5    2   14 1   
     6    2   15 1   
     7    3    4 ar  
     8    3    8 ar  
     9    3   13 1   
    10    4    5 ar  
    11    4    9 1   
    12    5    6 ar  
    13    5   16 1   
    14    6    7 ar  
    15    6   17 1   
    16    7    8 ar  
    17    7   18 1   
    18    8   10 1   
    19    9   19 1   
    20    9   20 1   
    21    9   21 1   
    22   10   22 1   
    23   10   23 1   
    24   10   24 1   
@<TRIPOS>SUBSTRUCTURE
     1 DBA         1 TEMP              0 ****  ****    0 ROOT
