@<TRIPOS>MOLECULE
molecule
   24    24     1     0     0
SMALL
bcc


@<TRIPOS>ATOM
      1 C1           0.0000     0.0000     0.0000 c          1 DBA       0.892600
      2 C2           1.5070     0.0000     0.0000 c3         1 DBA       0.013400
      3 C1'          3.3400     0.0020     1.2830 ca         1 DBA       0.124100
      4 C2'          4.0350    -1.1980     1.2620 ca         1 DBA      -0.104800
      5 C3'          5.4150    -1.1950     1.1990 ca         1 DBA      -0.133500
      6 C4'          6.1040     0.0030     1.1600 ca         1 DBA      -0.156000
      7 C5'          5.4130     1.2010     1.1860 ca         1 DBA      -0.133500
      8 C6'          4.0340     1.2020     1.2500 ca         1 DBA      -0.104800
      9 CM2          3.2850    -2.5050     1.3040 c3         1 DBA      -0.043800
     10 CM6          3.2820     2.5080     1.2790 c3         1 DBA      -0.043800
     11 O1          -0.6040     0.0000     1.0450 o          1 DBA      -0.833300
     12 O2          -0.6710    -0.0020    -1.1630 o          1 DBA      -0.833300
     13 O1'          1.9840     0.0010     1.3460 os         1 DBA      -0.301900
     14 H21          1.8680    -0.8850    -0.5100 h1         1 DBA       0.022700
     15 H22          1.8680     0.8840    -0.5120 h1         1 DBA       0.022700
     16 H3'          5.9580    -2.1320     1.1810 ha         1 DBA       0.115000
     17 H4'          7.1860     0.0030     1.1100 ha         1 DBA       0.110000
     18 H5'          5.9540     2.1390     1.1580 ha         1 DBA       0.115000
     19 HM21         2.4140    -2.4010     1.9400 hc         1 DBA       0.045533
     20 HM22         2.9710    -2.7730     0.3020 hc         1 DBA       0.045533
     21 HM23         3.9310    -3.2790     1.6990 hc         1 DBA       0.045533
     22 HM61         3.9270     3.2880     1.6660 hc         1 DBA       0.045533
     23 HM62         2.9670     2.7660     0.2750 hc         1 DBA       0.045533
     24 HM63         2.4120     2.4100     1.9160 hc         1 DBA       0.045533
@<TRIPOS>BOND
     1     1     2 1
     2     1    11 1
     3     1    12 1
     4     2    13 1
     5     2    14 1
     6     2    15 1
     7     3     4 ar
     8     3     8 ar
     9     3    13 1
    10     4     5 ar
    11     4     9 1
    12     5     6 ar
    13     5    16 1
    14     6     7 ar
    15     6    17 1
    16     7     8 ar
    17     7    18 1
    18     8    10 1
    19     9    19 1
    20     9    20 1
    21     9    21 1
    22    10    22 1
    23    10    23 1
    24    10    24 1
@<TRIPOS>SUBSTRUCTURE
     1 DBA         1 TEMP              0 ****  ****    0 ROOT
