@<TRIPOS>MOLECULE
molecule
   20    20     1     0     0
SMALL
bcc


@<TRIPOS>ATOM
      1 O4           0.0000     0.0000     0.0000 oh         1 DBC      -0.588800
      2 C5           1.4300     0.0000     0.0000 c3         1 DBC       0.507700
      3 O3           1.9110     0.0000     1.3500 os         1 DBC      -0.404100
      4 O2           1.9110    -1.1800    -0.6650 os         1 DBC      -0.404100
      5 C2           3.1050    -1.5530     0.0640 c3         1 DBC       0.130600
      6 C1           3.3810    -3.0530    -0.0670 c3         1 DBC       0.035700
      7 S1           3.8000    -3.4420    -1.7880 sh         1 DBC      -0.389400
      8 C3           2.7150    -1.1870     1.5170 c3         1 DBC       0.130600
      9 C4           3.9610    -0.8820     2.3530 c3         1 DBC       0.035700
     10 S4           3.4660    -0.4600     4.0460 sh         1 DBC      -0.389400
     11 HO4         -0.3140     0.7590    -0.4630 ho         1 DBC       0.420000
     12 H5           1.7970     0.8800    -0.5140 h3         1 DBC       0.059700
     13 H2           3.9550    -0.9670    -0.2640 h1         1 DBC       0.080200
     14 H11          2.4980    -3.6090     0.2250 h1         1 DBC       0.067700
     15 H12          4.2090    -3.3250     0.5760 h1         1 DBC       0.067700
     16 HS1          4.1460    -4.7200    -1.8800 hs         1 DBC       0.212800
     17 H3           2.1310    -1.9810     1.9660 h1         1 DBC       0.080200
     18 H41          4.4940    -0.0470     1.9140 h1         1 DBC       0.067700
     19 H42          4.6050    -1.7520     2.3710 h1         1 DBC       0.067700
     20 HS4          4.5490    -0.3050     4.7980 hs         1 DBC       0.212800
@<TRIPOS>BOND
     1     1     2 1
     2     1    11 1
     3     2     3 1
     4     2     4 1
     5     2    12 1
     6     3     8 1
     7     4     5 1
     8     5     6 1
     9     5     8 1
    10     5    13 1
    11     6     7 1
    12     6    14 1
    13     6    15 1
    14     7    16 1
    15     8     9 1
    16     8    17 1
    17     9    10 1
    18     9    18 1
    19     9    19 1
    20    10    20 1
@<TRIPOS>SUBSTRUCTURE
     1 DBC         1 TEMP              0 ****  ****    0 ROOT
