@<TRIPOS>MOLECULE
DBC
   20    20     1     0     0
SMALL
bcc


@<TRIPOS>ATOM
      1 O4          0.1380   -0.1710   -0.1890 oh        1 DBC     -0.605800
      2 C5          1.4410    0.3020   -0.1930 c3        1 DBC      0.512700
      3 O3          1.9150    0.3070    1.1410 os        1 DBC     -0.455100
      4 O2          2.2260   -0.6330   -0.9150 os        1 DBC     -0.455100
      5 C2          3.1120   -1.3360   -0.0290 c3        1 DBC      0.126100
      6 C1          3.0100   -2.8280   -0.2410 c3        1 DBC     -0.018800
      7 S1          4.2530   -3.5410    0.8140 sh        1 DBC     -0.268400
      8 C3          2.6730   -0.8890    1.3850 c3        1 DBC      0.126100
      9 C4          3.8270   -0.5960    2.3110 c3        1 DBC     -0.018800
     10 S4          4.5880   -2.1720    2.6340 sh        1 DBC     -0.268400
     11 HO4         0.1290   -1.0750    0.1500 ho        1 DBC      0.416000
     12 H5          1.4650    1.3250   -0.6440 h3        1 DBC      0.147700
     13 H2          4.1510   -0.9770   -0.2720 h1        1 DBC      0.079700
     14 H11         3.2120   -3.0760   -1.3100 h1        1 DBC      0.079200
     15 H12         1.9920   -3.2030    0.0130 h1        1 DBC      0.079200
     16 HS1         3.9250   -4.8190    0.7390 hs        1 DBC      0.142800
     17 H3          1.9760   -1.6400    1.8530 h1        1 DBC      0.079700
     18 H41         3.4500   -0.1410    3.2590 h1        1 DBC      0.079200
     19 H42         4.5430    0.1200    1.8450 h1        1 DBC      0.079200
     20 HS4         5.7200   -1.7780    3.1890 hs        1 DBC      0.142800
@<TRIPOS>BOND
     1    1    2 1   
     2    1   11 1   
     3    2    3 1   
     4    2    4 1   
     5    2   12 1   
     6    3    8 1   
     7    4    5 1   
     8    5    6 1   
     9    5    8 1   
    10    5   13 1   
    11    6    7 1   
    12    6   14 1   
    13    6   15 1   
    14    7   16 1   
    15    8    9 1   
    16    8   17 1   
    17    9   10 1   
    18    9   18 1   
    19    9   19 1   
    20   10   20 1   
@<TRIPOS>SUBSTRUCTURE
     1 DBC         1 TEMP              0 ****  ****    0 ROOT
