@<TRIPOS>MOLECULE
DBD
   43    46     1     0     0
SMALL
bcc


@<TRIPOS>ATOM
      1 O1           0.0000     0.0000     0.0000 os         1 DBD      -0.416600
      2 C2           1.4330     0.0000     0.0000 c3         1 DBD       0.311400
      3 C3           1.9080     0.0000     1.4160 cc         1 DBD      -0.203400
      4 C4           1.1680    -0.3450     2.4970 cd         1 DBD       0.003700
      5 C5          -0.2770    -0.7830     2.2850 c3         1 DBD       0.005900
      6 C6          -0.4380    -1.1010     0.7930 c3         1 DBD       0.197400
      7 S7           3.4890     0.4290     2.0760 ss         1 DBD      -0.258800
      8 C8           3.1750     0.1600     3.7590 cc         1 DBD       0.088500
      9 C9           1.8490    -0.2650     3.7710 cd         1 DBD      -0.232600
     10 C10          1.1700    -0.6110     5.0210 c          1 DBD       0.995200
     11 O11          1.2040    -1.7550     5.4350 o          1 DBD      -0.895300
     12 O12          0.5080     0.3380     5.7150 o          1 DBD      -0.895300
     13 N13          4.0330     0.3220     4.8310 ns         1 DBD       0.055900
     14 C14          5.2970     0.7410     4.6240 c          1 DBD       0.438100
     15 C15          6.2250     0.9150     5.7810 c          1 DBD       0.924600
     16 O16          5.8410     0.6790     6.9060 o          1 DBD      -0.870800
     17 O17          7.4870     1.3340     5.5750 o          1 DBD      -0.870800
     18 O18          5.6810     0.9760     3.4970 o          1 DBD      -0.630100
     19 C19          1.9510     1.2510    -0.7150 c3         1 DBD       0.174400
     20 O20          1.4940     1.2480    -2.0690 os         1 DBD      -0.356400
     21 C21          1.9800     2.3700    -2.6480 ce         1 DBD       0.739200
     22 C22          1.6900     2.6630    -4.0590 ca         1 DBD      -0.160900
     23 C23          2.2710     3.8660    -4.4790 ca         1 DBD      -0.118500
     24 S24          3.1040     4.4310    -3.0200 sy         1 DBD       1.076700
     25 N25          2.7070     3.1920    -1.9670 nf         1 DBD      -0.572300
     26 C26          0.9330     1.9490    -5.0010 ca         1 DBD      -0.038000
     27 C27          0.7910     2.4280    -6.2840 ca         1 DBD      -0.087000
     28 C28          1.3820     3.6170    -6.6710 ca         1 DBD      -0.107000
     29 C29          2.1290     4.3380    -5.7510 ca         1 DBD       0.027000
     30 O30          2.4110     5.5880    -2.5720 o          1 DBD      -0.570300
     31 O31          4.4980     4.3250    -3.2740 o          1 DBD      -0.570300
     32 H2           1.7950    -0.8890    -0.5030 h1         1 DBD       0.000700
     33 H51         -0.4840    -1.6670     2.8740 hc         1 DBD       0.038700
     34 H52         -0.9500     0.0200     2.5640 hc         1 DBD       0.038700
     35 H61         -1.4920    -1.2570     0.5960 h1         1 DBD      -0.001800
     36 H62          0.1930    -1.9510     0.5630 h1         1 DBD      -0.001800
     37 H13          3.7230     0.1070     5.7580 hn         1 DBD       0.213500
     38 H191         3.0340     1.2540    -0.6990 h1         1 DBD       0.053200
     39 H192         1.5790     2.1350    -0.2110 h1         1 DBD       0.053200
     40 H26          0.4610     1.0150    -4.7180 ha         1 DBD       0.118000
     41 H27          0.2080     1.8640    -7.0020 ha         1 DBD       0.100000
     42 H28          1.2630     3.9820    -7.6840 ha         1 DBD       0.101000
     43 H29          2.5970     5.2710    -6.0420 ha         1 DBD       0.104000
@<TRIPOS>BOND
     1     1     2 1   
     2     1     6 1   
     3     2     3 1   
     4     2    19 1   
     5     2    32 1   
     6     3     4 2   
     7     3     7 1   
     8     4     5 1   
     9     4     9 1   
    10     5     6 1   
    11     5    33 1   
    12     5    34 1   
    13     6    35 1   
    14     6    36 1   
    15     7     8 1   
    16     8     9 2   
    17     8    13 1   
    18     9    10 1   
    19    10    11 1   
    20    10    12 1   
    21    13    14 1   
    22    13    37 1   
    23    14    15 1   
    24    14    18 2   
    25    15    16 1   
    26    15    17 1   
    27    19    20 1   
    28    19    38 1   
    29    19    39 1   
    30    20    21 1   
    31    21    22 1   
    32    21    25 2   
    33    22    23 ar  
    34    22    26 ar  
    35    23    24 1   
    36    23    29 ar  
    37    24    25 1   
    38    24    30 2   
    39    24    31 2   
    40    26    27 ar  
    41    26    40 1   
    42    27    28 ar  
    43    27    41 1   
    44    28    29 ar  
    45    28    42 1   
    46    29    43 1   
@<TRIPOS>SUBSTRUCTURE
     1 DBD         1 TEMP              0 ****  ****    0 ROOT
