@<TRIPOS>MOLECULE
molecule
   26    27     1     0     0
SMALL
bcc


@<TRIPOS>ATOM
      1 C5           0.0000     0.0000     0.0000 ca         1 DBE      -0.161750
      2 C4           1.4160     0.0000     0.0000 ca         1 DBE      -0.077500
      3 C10          1.4110     0.0000     2.4740 ca         1 DBE      -0.077500
      4 C1          -0.0190    -0.0000     2.4780 ca         1 DBE      -0.161750
      5 C6          -0.7020    -0.0010     1.2360 ca         1 DBE       0.118600
      6 C12          2.1280     0.0000     1.2310 ca         1 DBE      -0.162100
      7 O10          4.2680    -0.0340     2.2960 o          1 DBE      -0.524100
      8 C11          3.6690    -0.0020     1.2140 c          1 DBE       0.578300
      9 C13          4.5190     0.0380    -0.0500 ca         1 DBE      -0.162100
     10 C18          4.6510    -1.1400    -0.8640 ca         1 DBE      -0.077500
     11 C17          5.4430    -1.1020    -2.0470 ca         1 DBE      -0.161750
     12 C16          6.0950     0.0980    -2.4090 ca         1 DBE       0.118600
     13 C15          5.9720     1.2640    -1.6090 ca         1 DBE      -0.161750
     14 C14          5.1900     1.2440    -0.4330 ca         1 DBE      -0.077500
     15 O23         -2.0470    -0.0010     1.2140 oh         1 DBE      -0.520600
     16 O24          6.8500     0.1390    -3.5400 oh         1 DBE      -0.520600
     17 H1          -0.5690    -0.0000     3.4110 ha         1 DBE       0.148250
     18 H10          1.9540     0.0010     3.4120 ha         1 DBE       0.147500
     19 H4           1.9570     0.0000    -0.9380 ha         1 DBE       0.147500
     20 H5          -0.5450    -0.0000    -0.9360 ha         1 DBE       0.148250
     21 H23         -2.3620    -0.8900     1.2380 ho         1 DBE       0.424000
     22 H14          5.0980     2.1360     0.1750 ha         1 DBE       0.147500
     23 H18          4.1470    -2.0550    -0.5780 ha         1 DBE       0.147500
     24 H15          6.4800     2.1750    -1.9030 ha         1 DBE       0.148250
     25 H17          5.5450    -1.9860    -2.6640 ha         1 DBE       0.148250
     26 H24          7.7370    -0.1060    -3.3350 ho         1 DBE       0.424000
@<TRIPOS>BOND
     1     4     5 ar
     2     4     3 ar
     3     2     1 ar
     4     2     6 ar
     5     1     5 ar
     6     5    15 1
     7     7     8 2
     8     8     6 1
     9     8     9 1
    10     6     3 ar
    11     9    14 ar
    12     9    10 ar
    13    14    13 ar
    14    13    12 ar
    15    12    11 ar
    16    12    16 1
    17    11    10 ar
    18     4    17 1
    19     3    18 1
    20     2    19 1
    21     1    20 1
    22    15    21 1
    23    14    22 1
    24    10    23 1
    25    13    24 1
    26    11    25 1
    27    16    26 1
@<TRIPOS>SUBSTRUCTURE
     1 DBE         1 TEMP              0 ****  ****    0 ROOT
