@<TRIPOS>MOLECULE
DBF
   25    27     1     0     0
SMALL
bcc


@<TRIPOS>ATOM
      1 C1          0.0570   -0.4150    0.0360 ca        1 DBF     -0.119000
      2 C2          1.4560   -0.3200   -0.0030 ca        1 DBF     -0.084600
      3 C3          2.0880   -0.1400    1.2270 ca        1 DBF      0.106100
      4 C4          1.3500   -0.0570    2.4540 cp        1 DBF     -0.102000
      5 C5         -0.0340   -0.1560    2.4480 ca        1 DBF     -0.128000
      6 C6         -0.6750   -0.3360    1.2240 ca        1 DBF     -0.183000
      7 O           3.4690   -0.0160    1.4630 os        1 DBF     -0.152200
      8 C7          4.7980    0.3090    3.5650 ca        1 DBF     -0.084600
      9 C8          3.6100    0.1470    2.8520 ca        1 DBF      0.106100
     10 C9          2.3320    0.1280    3.5020 cp        1 DBF     -0.102000
     11 C10         2.2430    0.2730    4.8800 ca        1 DBF     -0.128000
     12 C11         3.4250    0.4360    5.6010 ca        1 DBF     -0.183000
     13 C12         4.6630    0.4530    4.9540 ca        1 DBF     -0.119000
     14 O1          2.4060   -1.5770   -1.7990 o         1 DBF     -0.827300
     15 C13         2.1160   -0.4250   -1.3740 c         1 DBF      0.926200
     16 O2          2.2480    0.6370   -2.0440 o         1 DBF     -0.827300
     17 O3          6.8560   -0.7380    2.9540 o         1 DBF     -0.827300
     18 C14         6.2150    0.3480    3.0030 c         1 DBF      0.926200
     19 O4          6.6980    1.4750    2.7070 o         1 DBF     -0.827300
     20 H1         -0.4730   -0.5580   -0.9180 ha        1 DBF      0.123000
     21 H5         -0.6030   -0.0930    3.3840 ha        1 DBF      0.102000
     22 H6         -1.7700   -0.4170    1.1910 ha        1 DBF      0.092000
     23 H10         1.2680    0.2600    5.3810 ha        1 DBF      0.102000
     24 H11         3.3820    0.5540    6.6920 ha        1 DBF      0.092000
     25 H12         5.5810    0.5830    5.5470 ha        1 DBF      0.123000
@<TRIPOS>BOND
     1    1    2 ar  
     2    1    6 ar  
     3    1   20 1   
     4    2    3 ar  
     5    2   15 1   
     6    3    4 ar  
     7    3    7 1   
     8    4    5 ar  
     9    4   10 1   
    10    5    6 ar  
    11    5   21 1   
    12    6   22 1   
    13    7    9 1   
    14    8    9 ar  
    15    8   13 ar  
    16    8   18 1   
    17    9   10 ar  
    18   10   11 ar  
    19   11   12 ar  
    20   11   23 1   
    21   12   13 ar  
    22   12   24 1   
    23   13   25 1   
    24   14   15 1   
    25   15   16 1   
    26   17   18 1   
    27   18   19 1   
@<TRIPOS>SUBSTRUCTURE
     1 DBF         1 TEMP              0 ****  ****    0 ROOT
