@<TRIPOS>MOLECULE
molecule
   16    16     1     0     0
SMALL
bcc


@<TRIPOS>ATOM
      1 O17          0.0000     0.0000     0.0000 o          1 DBH      -0.827800
      2 C21          1.3480     0.0000     0.0000 c          1 DBH       0.881200
      3 O9           1.9540     0.0000     1.0530 o          1 DBH      -0.827800
      4 C18          2.0860     0.0010    -1.2750 ca         1 DBH      -0.108600
      5 C15          1.3900    -0.0010    -2.4890 ca         1 DBH      -0.088000
      6 C12          2.0830    -0.0000    -3.6780 ca         1 DBH      -0.166000
      7 C3           3.4850     0.0060    -1.2790 ca         1 DBH       0.119100
      8 O3           4.1700     0.0060    -0.1070 oh         1 DBH      -0.481100
      9 C6           4.1710     0.0000    -2.4900 ca         1 DBH       0.021100
     10 C9           3.4680     0.0000    -3.6810 ca         1 DBH      -0.175000
     11 O6           5.5310    -0.0010    -2.5010 oh         1 DBH      -0.533100
     12 HC15         0.3070    -0.0010    -2.4930 ha         1 DBH       0.158000
     13 HC12         1.5420    -0.0010    -4.6170 ha         1 DBH       0.107000
     14 HO3          4.5940     0.8400     0.0100 ho         1 DBH       0.408000
     15 HC9          4.0050    -0.0020    -4.6230 ha         1 DBH       0.109000
     16 HO6          5.8430    -0.8560    -2.7450 ho         1 DBH       0.404000
@<TRIPOS>BOND
     1     1     2 1
     2     2     3 1
     3     2     4 1
     4     4     5 ar
     5     4     7 ar
     6     5     6 ar
     7     5    12 1
     8     6    10 ar
     9     6    13 1
    10     7     8 1
    11     7     9 ar
    12     8    14 1
    13     9    10 ar
    14     9    11 1
    15    10    15 1
    16    11    16 1
@<TRIPOS>SUBSTRUCTURE
     1 DBH         1 TEMP              0 ****  ****    0 ROOT
