@<TRIPOS>MOLECULE
DBH
   16    16     1     0     0
SMALL
bcc


@<TRIPOS>ATOM
      1 O17         0.1530    0.1540   -0.0220 o         1 DBH     -0.831300
      2 C21         1.4120    0.0980   -0.0020 c         1 DBH      0.917200
      3 O9          2.0890    0.0860    1.0740 o         1 DBH     -0.831300
      4 C18         2.1550    0.0420   -1.3230 ca        1 DBH     -0.179600
      5 C15         1.4200    0.0550   -2.5140 ca        1 DBH     -0.100000
      6 C12         2.0490    0.0060   -3.7550 ca        1 DBH     -0.177000
      7 C3          3.5540   -0.0220   -1.4010 ca        1 DBH      0.105100
      8 O3          4.4020   -0.0430   -0.3220 oh        1 DBH     -0.574100
      9 C6          4.1920   -0.0720   -2.6650 ca        1 DBH      0.051100
     10 C9          3.4400   -0.0580   -3.8410 ca        1 DBH     -0.151000
     11 O6          5.5680   -0.1370   -2.7900 oh        1 DBH     -0.528100
     12 HC15        0.3210    0.1060   -2.4350 ha        1 DBH      0.153000
     13 HC12        1.4510    0.0180   -4.6760 ha        1 DBH      0.108000
     14 HO3         3.8640   -0.0040    0.4990 ho        1 DBH      0.491000
     15 HC9         3.9500   -0.0980   -4.8110 ha        1 DBH      0.121000
     16 HO6         5.9350   -0.1380   -1.8940 ho        1 DBH      0.427000
@<TRIPOS>BOND
     1    1    2 1   
     2    2    3 1   
     3    2    4 1   
     4    4    5 ar  
     5    4    7 ar  
     6    5    6 ar  
     7    5   12 1   
     8    6   10 ar  
     9    6   13 1   
    10    7    8 1   
    11    7    9 ar  
    12    8   14 1   
    13    9   10 ar  
    14    9   11 1   
    15   10   15 1   
    16   11   16 1   
@<TRIPOS>SUBSTRUCTURE
     1 DBH         1 TEMP              0 ****  ****    0 ROOT
