@<TRIPOS>MOLECULE
molecule
   41    43     1     0     0
SMALL
bcc


@<TRIPOS>ATOM
      1 P            0.0000     0.0000     0.0000 p5         1 DBI       1.127900
      2 O1P          1.4790     0.0000     0.0000 o          1 DBI      -0.898833
      3 O2P         -0.5360     0.0000     1.5180 o          1 DBI      -0.898833
      4 O3'         -0.5370     1.3140    -0.7590 os         1 DBI      -0.498200
      5 C5'          2.2790     2.2770    -1.9810 c3         1 DBI       0.136400
      6 C4'          0.8290     2.5020    -2.4190 c3         1 DBI       0.112100
      7 O4'          0.7570     2.6460    -3.8460 os         1 DBI      -0.424600
      8 C1'         -0.4390     2.0320    -4.3390 c3         1 DBI       0.233800
      9 N1          -1.2900     3.0410    -4.9730 na         1 DBI      -0.130300
     10 C8          -2.1920     2.8260    -5.9950 ca         1 DBI      -0.088200
     11 C7          -2.5820     1.7100    -6.7200 ca         1 DBI      -0.105000
     12 C6          -3.5410     1.8340    -7.7040 ca         1 DBI      -0.099300
     13 C11         -3.9670     0.6220    -8.4930 c3         1 DBI      -0.035800
     14 C5          -4.1090     3.0690    -7.9800 ca         1 DBI      -0.117300
     15 C4          -3.7370     4.1790    -7.2750 ca         1 DBI      -0.083000
     16 C9          -2.7720     4.0760    -6.2710 ca         1 DBI       0.092400
     17 N3          -2.2060     4.9690    -5.4200 nc         1 DBI      -0.661100
     18 C2          -1.3410     4.3640    -4.6610 cd         1 DBI       0.491700
     19 C2'         -1.1740     1.4060    -3.1360 c3         1 DBI       0.088100
     20 O2'         -2.1940     2.2810    -2.6490 oh         1 DBI      -0.593800
     21 C3'         -0.0310     1.2560    -2.0930 c3         1 DBI       0.155100
     22 O3P         -0.5380    -1.3140    -0.7570 o          1 DBI      -0.898833
     23 HO5          3.9440     3.3060    -2.0130 ho         1 DBI       0.382000
     24 H5'1         2.6700     1.3920    -2.4680 h1         1 DBI       0.071700
     25 H5'2         2.3150     2.1440    -0.9060 h1         1 DBI       0.071700
     26 H4'          0.4160     3.3780    -1.9340 h1         1 DBI       0.066700
     27 H1'         -0.1840     1.2580    -5.0530 h2         1 DBI       0.071700
     28 H7          -2.0640     0.7680    -6.5840 ha         1 DBI       0.130000
     29 H111        -5.0320     0.4680    -8.3710 hc         1 DBI       0.032367
     30 H112        -3.7420     0.7770    -9.5410 hc         1 DBI       0.032367
     31 H113        -3.4330    -0.2490    -8.1330 hc         1 DBI       0.032367
     32 H101        -5.9980     2.5570    -8.8170 hc         1 DBI       0.028700
     33 H102        -4.7280     2.8690   -10.0070 hc         1 DBI       0.028700
     34 H103        -5.4770     4.2160    -9.1390 hc         1 DBI       0.028700
     35 H4          -4.1870     5.1390    -7.4980 ha         1 DBI       0.123000
     36 H2          -0.7460     4.8440    -3.8930 h5         1 DBI       0.089800
     37 H2'         -1.5810     0.4380    -3.3990 h1         1 DBI       0.066700
     38 HO21        -2.9320     1.7710    -2.3580 ho         1 DBI       0.414000
     39 H3'          0.5300     0.3450    -2.2650 h1         1 DBI       0.101700
     40 C10         -5.1510     3.1860    -9.0620 c3         1 DBI      -0.033800
     41 O5'          3.0680     3.4110    -2.3480 oh         1 DBI      -0.644800
@<TRIPOS>BOND
     1     1     2 1
     2     1     3 1
     3     1     4 1
     4     1    22 1
     5     4    21 1
     6    41     5 1
     7    41    23 1
     8     5     6 1
     9     5    24 1
    10     5    25 1
    11     6     7 1
    12     6    21 1
    13     6    26 1
    14     7     8 1
    15     8     9 1
    16     8    19 1
    17     8    27 1
    18     9    10 1
    19     9    18 1
    20    10    11 ar
    21    10    16 ar
    22    11    12 ar
    23    11    28 1
    24    12    13 1
    25    12    14 ar
    26    13    29 1
    27    13    30 1
    28    13    31 1
    29    40    14 1
    30    40    32 1
    31    40    33 1
    32    40    34 1
    33    14    15 ar
    34    15    16 ar
    35    15    35 1
    36    16    17 1
    37    17    18 2
    38    18    36 1
    39    19    20 1
    40    19    21 1
    41    19    37 1
    42    20    38 1
    43    21    39 1
@<TRIPOS>SUBSTRUCTURE
     1 DBI         1 TEMP              0 ****  ****    0 ROOT
