@<TRIPOS>MOLECULE
DBI
   41    41     1     0     0
SMALL
bcc


@<TRIPOS>ATOM
      1 P          -0.1570   -0.1950    0.3130 p5        1 DBI      1.928000
      2 O1P         1.1200   -0.4900    0.9830 o         1 DBI     -0.830000
      3 O2P        -1.3900    0.2760    0.9670 o         1 DBI     -0.830000
      4 O3'         0.0860    0.7210   -1.1010 os        1 DBI     -0.623000
      5 C5'         0.8000    4.1460   -1.8260 c2        1 DBI      0.033000
      6 C4'         0.6770    2.8110   -2.0580 c2        1 DBI     -0.210000
      7 O4'         1.0300    2.3310   -3.3360 os        1 DBI     -0.134000
      8 C1'         0.0220    1.9000   -4.1730 c2        1 DBI     -0.418000
      9 N1         -0.6090    2.8670   -4.9470 nh        1 DBI      0.042000
     10 C8         -1.7410    2.6880   -5.7740 ca        1 DBI     -0.064000
     11 C7         -2.6410    1.6380   -5.9820 ca        1 DBI     -0.075000
     12 C6         -3.6620    1.7840   -6.9170 ca        1 DBI     -0.131000
     13 C11        -4.6160    0.6690   -7.1290 c3        1 DBI     -0.151000
     14 C5         -3.8150    2.9800   -7.6620 ca        1 DBI     -0.120000
     15 C4         -2.9520    4.0530   -7.4630 ca        1 DBI     -0.137000
     16 C9         -1.9270    3.9290   -6.5250 ca        1 DBI     -0.092000
     17 N3         -0.9250    4.7940   -6.0870 nh        1 DBI     -0.241000
     18 C2         -0.1220    4.1530   -5.1410 c1        1 DBI     -0.167000
     19 C2'        -0.4140    0.5000   -4.0270 c3        1 DBI      0.102000
     20 O2'        -1.6760    0.3020   -3.3870 oh        1 DBI     -0.405000
     21 C3'         0.4090    1.9650   -0.8950 c1        1 DBI     -0.009000
     22 O3P        -0.5660   -1.4680   -0.6260 oh        1 DBI     -0.823000
     23 HO5         0.9840    4.6980   -3.6630 ho        1 DBI      0.286000
     24 H5'1        2.9550    3.7320   -5.0030 ha        1 DBI      0.000000
     25 H5'2        2.3380    3.5080   -4.8220 ha        1 DBI      0.000000
     26 H4'         0.7030    4.5910   -0.8230 h4        1 DBI      0.134000
     27 H1'        -0.9630   -1.2230   -1.4570 ho        1 DBI      0.240000
     28 H7         -2.5550    0.7140   -5.3860 ha        1 DBI      0.168000
     29 H111       -4.5750    0.3150   -8.1900 hc        1 DBI      0.059333
     30 H112       -4.3840   -0.1950   -6.4600 hc        1 DBI      0.059333
     31 H113       -5.6630    1.0040   -6.9200 hc        1 DBI      0.059333
     32 H101       -4.8180    2.2890   -9.4300 hc        1 DBI      0.054667
     33 H102       -4.8930    4.0820   -9.1720 hc        1 DBI      0.054667
     34 H103       -5.9040    2.9730   -8.1550 hc        1 DBI      0.054667
     35 H4         -3.0780    4.9840   -8.0310 ha        1 DBI      0.098000
     36 H2         -0.7990    5.7140   -6.4010 hn        1 DBI      0.222000
     37 H2'        -0.5420    0.0020   -5.0280 h1        1 DBI      0.066000
     38 HO21       -1.6780    0.8650   -2.6050 ho        1 DBI      0.214000
     39 H3'         0.3690   -0.0430   -3.4280 h1        1 DBI      0.066000
     40 C10        -4.9090    3.0910   -8.6540 c3        1 DBI     -0.147000
     41 O5'         1.0860    5.0930   -2.7580 oh        1 DBI     -0.334000
@<TRIPOS>BOND
     1    1    2 1   
     2    1    3 1   
     3    1    4 1   
     4    1   22 1   
     5    4   21 1   
     6    5    6 1   
     7    5   26 1   
     8    5   41 1   
     9    6    7 1   
    10    6   21 1   
    11    7    8 1   
    12    8    9 1   
    13    8   19 1   
    14    9   10 1   
    15    9   18 1   
    16   10   11 1   
    17   10   16 1   
    18   11   12 1   
    19   11   28 1   
    20   12   13 1   
    21   12   14 1   
    22   13   29 1   
    23   13   30 1   
    24   13   31 1   
    25   14   15 1   
    26   14   40 1   
    27   15   16 1   
    28   15   35 1   
    29   16   17 1   
    30   17   18 1   
    31   17   36 1   
    32   19   20 1   
    33   19   37 1   
    34   19   39 1   
    35   20   38 1   
    36   22   27 1   
    37   23   41 1   
    38   24   25 1   
    39   32   40 1   
    40   33   40 1   
    41   34   40 1   
@<TRIPOS>SUBSTRUCTURE
     1 DBI         1 TEMP              0 ****  ****    0 ROOT
