@<TRIPOS>MOLECULE
molecule
   22    23     1     0     0
SMALL
bcc


@<TRIPOS>ATOM
      1 O1           0.0000     0.0000     0.0000 oh         1 DBJ      -0.615800
      2 C2           1.4280     0.0000     0.0000 c3         1 DBJ       0.196700
      3 C3           1.9310     0.0000     1.4210 ca         1 DBJ      -0.082300
      4 C4           3.2940     0.0060     1.6740 ca         1 DBJ       0.061100
      5 O5           4.1680     0.0060     0.6300 os         1 DBJ      -0.327900
      6 C5           5.5170     0.3870     0.9200 c3         1 DBJ       0.097400
      7 C7           5.9640    -0.3560     2.1860 c3         1 DBJ       0.101400
      8 O8           5.0870     0.0160     3.2560 os         1 DBJ      -0.323900
      9 C9           3.7540     0.0070     2.9860 ca         1 DBJ       0.063100
     10 C10          2.8470     0.0010     4.0340 ca         1 DBJ      -0.124000
     11 C11          1.4880    -0.0060     3.7750 ca         1 DBJ      -0.133000
     12 C12          1.0320     0.0010     2.4710 ca         1 DBJ      -0.104000
     13 H1          -0.3140     0.0000    -0.8890 ho         1 DBJ       0.405000
     14 H2           1.7890     0.8840    -0.5110 h1         1 DBJ       0.037200
     15 H3           1.7890    -0.8840    -0.5110 h1         1 DBJ       0.037200
     16 H4           6.1590     0.1130     0.0910 h1         1 DBJ       0.067200
     17 H5           5.5650     1.4560     1.0890 h1         1 DBJ       0.067200
     18 H6           6.9740    -0.0520     2.4350 h1         1 DBJ       0.069700
     19 H7           5.8830    -1.4230     2.0170 h1         1 DBJ       0.069700
     20 H8           3.2020    -0.0040     5.0580 ha         1 DBJ       0.144000
     21 H9           0.7810    -0.0050     4.5960 ha         1 DBJ       0.136000
     22 H10         -0.0330    -0.0040     2.2700 ha         1 DBJ       0.158000
@<TRIPOS>BOND
     1     7     6 1
     2     7     8 1
     3     6     5 1
     4     8     9 1
     5     5     4 1
     6     9     4 ar
     7     9    10 ar
     8     4     3 ar
     9    10    11 ar
    10     3     2 1
    11     3    12 ar
    12     2     1 1
    13    11    12 ar
    14     1    13 1
    15     2    14 1
    16     2    15 1
    17     6    16 1
    18     6    17 1
    19     7    18 1
    20     7    19 1
    21    10    20 1
    22    11    21 1
    23    12    22 1
@<TRIPOS>SUBSTRUCTURE
     1 DBJ         1 TEMP              0 ****  ****    0 ROOT
