@<TRIPOS>MOLECULE
DBN
   50    55     1     0     0
SMALL
bcc


@<TRIPOS>ATOM
      1 C27          0.0000     0.0000     0.0000 c3         1 DBN       0.128800
      2 C28          1.5420     0.0000     0.0000 c3         1 DBN       0.153800
      3 C29          9.0750     5.6370    16.5160 c3         1 DBN       0.128800
      4 C30          8.2110     6.8980    16.3120 c3         1 DBN       0.152800
      5 C1           4.0290     2.5080    11.2550 cc         1 DBN       0.116900
      6 S2           4.0600     2.5680     9.4710 ss         1 DBN      -0.308800
      7 C3           2.7110     1.4430     9.1540 cc         1 DBN       0.011000
      8 C4           2.3190     1.0890    10.4350 cd         1 DBN      -0.094000
      9 C5           2.9920     1.6250    11.4990 cd         1 DBN      -0.144000
     10 C6           2.1580     1.0040     7.8660 cc         1 DBN       0.315400
     11 N7           1.1590     0.1620     7.7170 nd         1 DBN      -0.507100
     12 C8           0.9040    -0.0180     6.4060 ca         1 DBN       0.075400
     13 C9           1.8260     0.7680     5.6890 ca         1 DBN      -0.280200
     14 N10          2.6090     1.4070     6.6340 na         1 DBN       0.275700
     15 C11         -0.0340    -0.7910     5.7110 ca         1 DBN      -0.044000
     16 C12         -0.0530    -0.7810     4.3480 ca         1 DBN      -0.108000
     17 C13          0.8610    -0.0010     3.6300 ca         1 DBN      -0.119900
     18 C14          1.8020     0.7740     4.3050 ca         1 DBN      -0.034000
     19 C15          4.8930     3.2140    12.2210 ca         1 DBN       0.010000
     20 C16          5.3440     2.5540    13.3680 ca         1 DBN      -0.089500
     21 C17          6.1490     3.2100    14.2630 ca         1 DBN      -0.073000
     22 C18          6.5130     4.5390    14.0340 ca         1 DBN      -0.114900
     23 C19          6.0640     5.1980    12.8880 ca         1 DBN      -0.073000
     24 C20          5.2610     4.5430    11.9900 ca         1 DBN      -0.089500
     25 C21          0.8290    -0.0010     2.1520 ce         1 DBN       0.530800
     26 N22         -0.3390    -0.0060     1.4330 nu         1 DBN      -0.537200
     27 N23          1.8990     0.0000     1.4260 n2         1 DBN      -0.647900
     28 C24          7.3780     5.2460    15.0030 ce         1 DBN       0.521800
     29 N25          8.4430     4.6480    15.6250 nu         1 DBN      -0.538200
     30 N26          7.1960     6.4820    15.3350 n2         1 DBN      -0.638900
     31 H271        -0.3170    -0.9530    -0.4050 h1         1 DBN       0.027200
     32 H272        -0.3170     0.9570    -0.3970 h1         1 DBN       0.027200
     33 H281         1.9200    -0.8920    -0.4840 h1         1 DBN       0.022700
     34 H282         1.9200     0.8920    -0.4840 h1         1 DBN       0.022700
     35 H292        10.0540     5.8530    16.1060 h1         1 DBN       0.028200
     36 H301         8.8110     7.7070    15.9130 h1         1 DBN       0.024200
     37 H302         7.7420     7.1890    17.2440 h1         1 DBN       0.024200
     38 H4           1.5000     0.3970    10.5910 ha         1 DBN       0.134000
     39 H5           2.7120     1.3690    12.5140 ha         1 DBN       0.122000
     40 H10          3.2530     2.1530     6.4590 hn         1 DBN       0.135700
     41 H11         -0.7460    -1.3980     6.2570 ha         1 DBN       0.112000
     42 H12         -0.7810    -1.3820     3.8170 ha         1 DBN       0.104000
     43 H14          2.5090     1.3780     3.7500 ha         1 DBN       0.120000
     44 H16          5.0620     1.5230    13.5470 ha         1 DBN       0.114000
     45 H17          6.4990     2.6990    15.1520 ha         1 DBN       0.114500
     46 H19          6.3480     6.2280    12.7090 ha         1 DBN       0.114500
     47 H20          4.9130     5.0540    11.1000 ha         1 DBN       0.114000
     48 H22         -1.2630    -0.0080     1.8160 hn         1 DBN       0.315800
     49 H25          8.7410     3.7010    15.4970 hn         1 DBN       0.314800
     50 H291         8.9100     5.3000    17.5320 h1         1 DBN       0.028200
@<TRIPOS>BOND
     1     1     2 1   
     2     1    26 1   
     3     1    31 1   
     4     1    32 1   
     5     2    27 1   
     6     2    33 1   
     7     2    34 1   
     8     3     4 1   
     9     3    29 1   
    10     3    35 1   
    11     3    50 1   
    12     4    30 1   
    13     4    36 1   
    14     4    37 1   
    15     5     6 1   
    16     5     9 2   
    17     5    19 1   
    18     6     7 1   
    19     7     8 2   
    20     7    10 1   
    21     8     9 1   
    22     8    38 1   
    23     9    39 1   
    24    10    11 2   
    25    10    14 1   
    26    11    12 1   
    27    12    13 ar  
    28    12    15 ar  
    29    13    14 1   
    30    13    18 ar  
    31    14    40 1   
    32    15    16 ar  
    33    15    41 1   
    34    16    17 ar  
    35    16    42 1   
    36    17    18 ar  
    37    17    25 1   
    38    18    43 1   
    39    19    20 ar  
    40    19    24 ar  
    41    20    21 ar  
    42    20    44 1   
    43    21    22 ar  
    44    21    45 1   
    45    22    23 ar  
    46    22    28 1   
    47    23    24 ar  
    48    23    46 1   
    49    24    47 1   
    50    25    26 1   
    51    25    27 2   
    52    26    48 1   
    53    28    29 1   
    54    28    30 2   
    55    29    49 1   
@<TRIPOS>SUBSTRUCTURE
     1 DBN         1 TEMP              0 ****  ****    0 ROOT
