@<TRIPOS>MOLECULE
molecule
   70    74     1     0     0
SMALL
bcc


@<TRIPOS>ATOM
      1 N1           0.0000     0.0000     0.0000 ns         1 DBO      -0.582900
      2 C3           1.4650     0.0000     0.0000 c3         1 DBO       0.122700
      3 C5           1.9760     0.0000     1.4430 c3         1 DBO       0.136100
      4 O7           1.5980     1.2210     2.0810 oh         1 DBO      -0.596800
      5 C9           3.5000    -0.1260     1.4440 c3         1 DBO       0.118800
      6 N12          3.9810    -0.2450     2.8280 n7         1 DBO      -0.793200
      7 C14          5.4430    -0.3620     2.7580 c3         1 DBO       0.195100
      8 C17          6.0040    -0.4890     4.1510 ca         1 DBO      -0.085300
      9 C18          6.3560     0.6440     4.8610 ca         1 DBO      -0.104000
     10 C20          6.8750     0.5280     6.1360 ca         1 DBO      -0.083300
     11 C21          7.0330    -0.7220     6.7070 ca         1 DBO      -0.125000
     12 C23          6.6770    -1.8550     5.9990 ca         1 DBO      -0.125000
     13 C25          6.1620    -1.7380     4.7210 ca         1 DBO      -0.132000
     14 C27          7.2630     1.7630     6.9070 c3         1 DBO      -0.047800
     15 C31          1.9750     1.2480    -0.7220 c3         1 DBO      -0.048100
     16 C34          1.5760     1.1880    -2.1740 ca         1 DBO      -0.067300
     17 C35          0.3710     1.7260    -2.5830 ca         1 DBO      -0.116500
     18 C37          0.0050     1.6700    -3.9150 ca         1 DBO      -0.121000
     19 C39          0.8450     1.0760    -4.8380 ca         1 DBO      -0.129000
     20 C41          2.0510     0.5380    -4.4290 ca         1 DBO      -0.121000
     21 C43          2.4190     0.5980    -3.0980 ca         1 DBO      -0.116500
     22 C45         -0.6730    -0.4950    -1.0580 c          1 DBO       0.670700
     23 O46         -0.0700    -0.8600    -2.0440 o          1 DBO      -0.598100
     24 C47         -2.1430    -0.5910    -1.0140 cc         1 DBO      -0.138600
     25 C48         -2.7630    -0.9460    -2.0960 cd         1 DBO      -0.035000
     26 C50         -4.2220    -1.0840    -2.1910 ca         1 DBO      -0.151300
     27 C51         -5.0220    -0.2420    -1.5860 ca         1 DBO       0.375900
     28 C52         -6.4860    -0.4210    -1.6960 ca         1 DBO      -0.199300
     29 C54         -6.9840    -1.4090    -2.4040 ca         1 DBO      -0.114000
     30 C56         -6.0810    -2.3480    -3.0920 ca         1 DBO      -0.134000
     31 C58         -4.7800    -2.1930    -2.9910 ca         1 DBO      -0.099000
     32 O60         -4.5540     0.7990    -0.8640 os         1 DBO      -0.483600
     33 C61         -3.9560     0.3730     0.2680 ca         1 DBO       0.373900
     34 C62         -2.8190    -0.2820     0.2520 ca         1 DBO      -0.138300
     35 C63         -2.1980    -0.7180     1.5160 ca         1 DBO      -0.125000
     36 C65         -2.7800    -0.4600     2.6650 ca         1 DBO      -0.129000
     37 C67         -4.0600     0.2690     2.6890 ca         1 DBO      -0.119000
     38 C69         -4.6110     0.6600     1.5630 ca         1 DBO      -0.192300
     39 HN1         -0.5000     0.4140     0.7620 hn         1 DBO       0.331500
     40 H3           1.8260    -0.8850    -0.5100 h1         1 DBO       0.083700
     41 H5           1.5440    -0.8360     1.9790 h1         1 DBO       0.032700
     42 HO7          1.4010     1.0540     2.9880 ho         1 DBO       0.410000
     43 H91          3.9360     0.7540     0.9850 h1         1 DBO       0.048200
     44 H92          3.7900    -1.0060     0.8840 h1         1 DBO       0.048200
     45 H12          3.5990    -1.0720     3.2430 hn         1 DBO       0.347800
     46 H141         5.8540     0.5210     2.2830 h1         1 DBO       0.041700
     47 H142         5.7090    -1.2390     2.1800 h1         1 DBO       0.041700
     48 H18          6.2320     1.6230     4.4140 ha         1 DBO       0.137000
     49 H21          7.4390    -0.8130     7.7070 ha         1 DBO       0.130000
     50 H23          6.8010    -2.8340     6.4450 ha         1 DBO       0.129000
     51 H25          5.8830    -2.6260     4.1660 ha         1 DBO       0.125000
     52 H271         7.8390     2.4220     6.2690 hc         1 DBO       0.043700
     53 H272         7.8600     1.4800     7.7660 hc         1 DBO       0.043700
     54 H273         6.3690     2.2750     7.2420 hc         1 DBO       0.043700
     55 H311         1.5430     2.1310    -0.2660 hc         1 DBO       0.061200
     56 H312         3.0550     1.2940    -0.6460 hc         1 DBO       0.061200
     57 H35         -0.2880     2.1920    -1.8590 ha         1 DBO       0.123500
     58 H37         -0.9400     2.0910    -4.2350 ha         1 DBO       0.123500
     59 H39          0.5580     1.0300    -5.8820 ha         1 DBO       0.122000
     60 H41          2.7100     0.0750    -5.1530 ha         1 DBO       0.123500
     61 H43          3.3640     0.1770    -2.7770 ha         1 DBO       0.123500
     62 H48         -2.1710    -1.1540    -2.9790 ha         1 DBO       0.167000
     63 H52         -7.1520     0.2690    -1.1910 ha         1 DBO       0.142000
     64 H54         -8.0580    -1.5310    -2.4840 ha         1 DBO       0.136000
     65 H56         -6.4880    -3.1640    -3.6770 ha         1 DBO       0.136000
     66 H58         -4.1150    -2.8820    -3.4960 ha         1 DBO       0.140000
     67 H63         -1.2570    -1.2540     1.4970 ha         1 DBO       0.144000
     68 H65         -2.3220    -0.7840     3.5920 ha         1 DBO       0.134000
     69 H67         -4.5440     0.4840     3.6340 ha         1 DBO       0.137000
     70 H69         -5.5520     1.1960     1.5830 ha         1 DBO       0.143000
@<TRIPOS>BOND
     1     1     2 1
     2     1    22 1
     3     1    39 1
     4     2     3 1
     5     2    15 1
     6     2    40 1
     7     3     4 1
     8     3     5 1
     9     3    41 1
    10     4    42 1
    11     5     6 1
    12     5    43 1
    13     5    44 1
    14     6     7 1
    15     6    45 1
    16     7     8 1
    17     7    46 1
    18     7    47 1
    19     8     9 ar
    20     8    13 ar
    21     9    10 ar
    22     9    48 1
    23    10    11 ar
    24    10    14 1
    25    11    12 ar
    26    11    49 1
    27    12    13 ar
    28    12    50 1
    29    13    51 1
    30    14    52 1
    31    14    53 1
    32    14    54 1
    33    15    16 1
    34    15    55 1
    35    15    56 1
    36    16    17 ar
    37    16    21 ar
    38    17    18 ar
    39    17    57 1
    40    18    19 ar
    41    18    58 1
    42    19    20 ar
    43    19    59 1
    44    20    21 ar
    45    20    60 1
    46    21    61 1
    47    22    23 2
    48    22    24 1
    49    24    25 2
    50    24    34 1
    51    25    26 1
    52    25    62 1
    53    26    27 ar
    54    26    31 ar
    55    27    28 ar
    56    27    32 1
    57    28    29 ar
    58    28    63 1
    59    29    30 ar
    60    29    64 1
    61    30    31 ar
    62    30    65 1
    63    31    66 1
    64    32    33 1
    65    33    34 ar
    66    33    38 ar
    67    34    35 ar
    68    35    36 ar
    69    35    67 1
    70    36    37 ar
    71    36    68 1
    72    37    38 ar
    73    37    69 1
    74    38    70 1
@<TRIPOS>SUBSTRUCTURE
     1 DBO         1 TEMP              0 ****  ****    0 ROOT
