@<TRIPOS>MOLECULE
DBP
   20    20     1     0     0
SMALL
bcc


@<TRIPOS>ATOM
      1 N            0.0000     0.0000     0.0000 nz         1 DBP       0.073400
      2 CB           1.4690     0.0000     0.0000 c3         1 DBP       0.039100
      3 CG           1.9710     0.0000     1.4200 ca         1 DBP      -0.209300
      4 CD1          2.2020    -1.1990     2.0700 ca         1 DBP      -0.076000
      5 CE1          2.6640    -1.2040     3.3720 ca         1 DBP      -0.071000
      6 CD2          2.2070     1.1950     2.0680 ca         1 DBP      -0.089000
      7 CE2          2.6660     1.1930     3.3790 ca         1 DBP       0.059600
      8 CZ           2.8960    -0.0130     4.0290 ca         1 DBP      -0.056000
      9 NE2          2.9010     2.4000     4.0410 nv         1 DBP      -0.558200
     10 HN1         -0.3340     0.1920    -0.9240 hn         1 DBP       0.222800
     11 HN21        -0.3340    -0.8960     0.2960 hn         1 DBP       0.222800
     12 HB11         1.8300     0.8840    -0.5110 hx         1 DBP       0.081700
     13 HB21         1.8290    -0.8840    -0.5110 hx         1 DBP       0.081700
     14 HD11         2.0210    -2.1360     1.5560 ha         1 DBP       0.108000
     15 HC11         2.8430    -2.1450     3.8780 ha         1 DBP       0.126000
     16 HC21         2.0270     2.1330     1.5580 ha         1 DBP       0.113000
     17 HCZ1         3.2560    -0.0180     5.0510 ha         1 DBP       0.130000
     18 HE21         3.8020     2.8310     3.9900 hn         1 DBP       0.290800
     19 HE22         2.1690     2.8300     4.5710 hn         1 DBP       0.290800
     20 HN3         -0.3340     0.7060     0.6260 hn         1 DBP       0.222800
@<TRIPOS>BOND
     1     1     2 1   
     2     1    10 1   
     3     1    11 1   
     4     1    20 1   
     5     2     3 1   
     6     2    12 1   
     7     2    13 1   
     8     3     4 ar  
     9     3     6 ar  
    10     4     5 ar  
    11     4    14 1   
    12     5     8 ar  
    13     5    15 1   
    14     6     7 ar  
    15     6    16 1   
    16     7     8 ar  
    17     7     9 1   
    18     8    17 1   
    19     9    18 1   
    20     9    19 1   
@<TRIPOS>SUBSTRUCTURE
     1 DBP         1 TEMP              0 ****  ****    0 ROOT
