@<TRIPOS>MOLECULE
molecule
   20    20     1     0     0
SMALL
bcc


@<TRIPOS>ATOM
      1 N            0.0000     0.0000     0.0000 nz         1 DBP      -0.810600
      2 CB           1.4690     0.0000     0.0000 c3         1 DBP       0.160100
      3 CG           1.9710     0.0000     1.4200 ca         1 DBP      -0.194300
      4 CD1          2.2020    -1.1990     2.0700 ca         1 DBP      -0.111000
      5 CE1          2.6640    -1.2040     3.3720 ca         1 DBP      -0.107000
      6 CD2          2.2070     1.1950     2.0680 ca         1 DBP      -0.124000
      7 CE2          2.6660     1.1930     3.3790 ca         1 DBP       0.188600
      8 CZ           2.8960    -0.0130     4.0290 ca         1 DBP      -0.093000
      9 NE2          2.9010     2.4000     4.0410 nv         1 DBP      -0.988200
     10 HN1         -0.3340     0.1920    -0.9240 hn         1 DBP       0.454133
     11 HN21        -0.3340    -0.8960     0.2960 hn         1 DBP       0.454133
     12 HB11         1.8300     0.8840    -0.5110 hx         1 DBP       0.111700
     13 HB21         1.8290    -0.8840    -0.5110 hx         1 DBP       0.111700
     14 HD11         2.0210    -2.1360     1.5560 ha         1 DBP       0.135000
     15 HC11         2.8430    -2.1450     3.8780 ha         1 DBP       0.159000
     16 HC21         2.0270     2.1330     1.5580 ha         1 DBP       0.141000
     17 HCZ1         3.2560    -0.0180     5.0510 ha         1 DBP       0.166000
     18 HE21         3.8020     2.8310     3.9900 hn         1 DBP       0.445800
     19 HE22         2.1690     2.8300     4.5710 hn         1 DBP       0.445800
     20 HN3         -0.3340     0.7060     0.6260 hn         1 DBP       0.454133
@<TRIPOS>BOND
     1     1     2 1
     2     1    10 1
     3     1    11 1
     4     2     3 1
     5     2    12 1
     6     2    13 1
     7     3     4 ar
     8     3     6 ar
     9     4     5 ar
    10     4    14 1
    11     5     8 ar
    12     5    15 1
    13     6     7 ar
    14     6    16 1
    15     7     8 ar
    16     7     9 1
    17     8    17 1
    18     9    18 1
    19     9    19 1
    20    20     1 1
@<TRIPOS>SUBSTRUCTURE
     1 DBP         1 TEMP              0 ****  ****    0 ROOT
