@<TRIPOS>MOLECULE
DBQ
   30    32     1     0     0
SMALL
bcc


@<TRIPOS>ATOM
      1 O1           0.0000     0.0000     0.0000 o          1 DBQ      -0.646500
      2 C5           1.2170     0.0000     0.0000 c          1 DBQ       0.667100
      3 N2           1.9220     0.0000     1.1610 ns         1 DBQ      -0.193900
      4 C6           3.3390     0.3280     1.1740 c3         1 DBQ       0.044000
      5 C7           4.2410    -0.8680     0.8510 c3         1 DBQ      -0.056200
      6 C4           1.9780     0.0000    -1.2570 cc         1 DBQ      -0.360900
      7 N1           1.8020     0.6870    -2.4130 na         1 DBQ       0.539900
      8 C1           2.7360     0.2730    -3.3160 cc         1 DBQ      -0.341300
      9 C2           3.5410    -0.6510    -2.7400 cd         1 DBQ      -0.095000
     10 C3           3.1090    -0.8260    -1.4210 cd         1 DBQ      -0.234800
     11 C8           3.6620    -1.6260    -0.3280 cf         1 DBQ       0.342600
     12 C9           3.6600    -3.0000    -0.3700 cc         1 DBQ      -0.187600
     13 N4           3.1720    -3.7930    -1.3690 nc         1 DBQ      -0.319300
     14 C11          3.3520    -5.0480    -1.0500 cd         1 DBQ      -0.094200
     15 N5           2.9740    -6.1110    -1.8350 nz         1 DBQ       0.270400
     16 N3           3.9600    -5.1650     0.1730 ns         1 DBQ      -0.026400
     17 C10          4.1890    -3.9240     0.6550 c          1 DBQ       0.614700
     18 O2           4.7130    -3.6290     1.7130 o          1 DBQ      -0.590500
     19 HN2          1.4600    -0.2280     2.0200 hn         1 DBQ       0.197500
     20 H61          3.5990     0.7010     2.1570 h1         1 DBQ       0.038200
     21 H62          3.5210     1.1050     0.4420 h1         1 DBQ       0.038200
     22 H71          5.2150    -0.4900     0.5640 hc         1 DBQ       0.075200
     23 H72          4.2460    -1.5300     1.7090 hc         1 DBQ       0.075200
     24 HN1          1.0870     1.3660    -2.5840 hn         1 DBQ       0.125700
     25 H1           2.8200     0.6290    -4.3360 h4         1 DBQ       0.163000
     26 H2           4.3730    -1.1590    -3.2130 ha         1 DBQ       0.132000
     27 HN51         2.5580    -5.7710    -2.6800 hn         1 DBQ       0.206800
     28 HN52         3.7780    -6.6640    -2.0580 hn         1 DBQ       0.206800
     29 HN3          4.1990    -6.0240     0.6280 hn         1 DBQ       0.201500
     30 H53          2.3110    -6.6730    -1.3390 hn         1 DBQ       0.206800
@<TRIPOS>BOND
     1     1     2 2   
     2     2     3 1   
     3     2     6 1   
     4     3     4 1   
     5     3    19 1   
     6     4     5 1   
     7     4    20 1   
     8     4    21 1   
     9     5    11 1   
    10     5    22 1   
    11     5    23 1   
    12     6     7 1   
    13     6    10 2   
    14     7     8 1   
    15     7    24 1   
    16     8     9 2   
    17     8    25 1   
    18     9    10 1   
    19     9    26 1   
    20    10    11 1   
    21    11    12 2   
    22    12    13 1   
    23    12    17 1   
    24    13    14 2   
    25    14    15 1   
    26    14    16 1   
    27    15    27 1   
    28    15    28 1   
    29    15    30 1   
    30    16    17 1   
    31    16    29 1   
    32    17    18 2   
@<TRIPOS>SUBSTRUCTURE
     1 DBQ         1 TEMP              0 ****  ****    0 ROOT
