@<TRIPOS>MOLECULE
DBR
   71    75     1     0     0
SMALL
bcc


@<TRIPOS>ATOM
      1 C1           0.0000     0.0000     0.0000 c3         1 DBR      -0.016733
      2 C2           1.5300     0.0000     0.0000 c3         1 DBR      -0.040367
      3 C3           2.0410     0.0000     1.4430 c3         1 DBR      -0.016733
      4 C4           2.0410    -1.2490    -0.7210 c3         1 DBR      -0.005733
      5 C5          -0.5100    -1.2490     0.7210 c3         1 DBR      -0.040367
      6 C6           0.0000    -1.2490     2.1640 c3         1 DBR      -0.016733
      7 C7           0.0010    -2.4980    -0.0000 c3         1 DBR      -0.005733
      8 C8           1.5310    -1.2490     2.1640 c3         1 DBR      -0.040367
      9 C9           1.5310    -2.4980    -0.0000 c3         1 DBR      -0.130000
     10 C10          2.0410    -2.4980     1.4420 c3         1 DBR      -0.005733
     11 C11          2.0330    -3.7290    -0.7100 c          1 DBR       0.582100
     12 N12          1.7080    -4.9530    -0.2510 ns         1 DBR      -0.205900
     13 C13          2.1970    -6.1490    -0.9410 c3         1 DBR       0.050000
     14 C14          1.6860    -7.3980    -0.2200 c3         1 DBR      -0.038400
     15 C15          2.1970    -8.6470    -0.9420 c3         1 DBR      -0.034400
     16 C16          1.6860    -9.8970    -0.2200 c3         1 DBR       0.226800
     17 O17          2.7300    -3.6170    -1.6970 o          1 DBR      -0.646100
     18 N31          2.1750   -11.0930    -0.9110 n7         1 DBR      -0.590100
     19 S33          2.1290   -12.5640    -0.1520 sy         1 DBR       1.049200
     20 O32          2.5960   -13.5060    -1.1080 o          1 DBR      -0.587300
     21 O34          2.6910   -12.3520     1.1360 o          1 DBR      -0.587300
     22 N28         -3.9920   -14.0250    -1.5990 nh         1 DBR      -0.391000
     23 C18          0.4350   -12.9620     0.1250 ca         1 DBR      -0.159500
     24 C19         -0.0420   -13.0780     1.3940 ca         1 DBR       0.035000
     25 C20         -1.3790   -13.3920     1.6320 ca         1 DBR      -0.154000
     26 C21         -2.2450   -13.5960     0.6010 ca         1 DBR      -0.011000
     27 C22         -1.7870   -13.4890    -0.7220 ca         1 DBR      -0.054000
     28 C23         -0.4290   -13.1700    -0.9650 ca         1 DBR       0.054000
     29 C24          0.0300   -13.0620    -2.2890 ca         1 DBR      -0.125000
     30 C25         -0.8290   -13.2690    -3.3250 ca         1 DBR      -0.064000
     31 C26         -2.1640   -13.5890    -3.0990 ca         1 DBR      -0.151000
     32 C27         -2.6540   -13.7040    -1.8150 ca         1 DBR       0.029600
     33 C28         -4.7870   -12.9640    -2.2300 c3         1 DBR       0.162600
     34 C29         -4.2570   -15.2570    -2.3530 c3         1 DBR       0.162600
     35 H11A        -0.3610     0.0000    -1.0210 hc         1 DBR       0.015867
     36 H12A        -0.3610     0.8840     0.5110 hc         1 DBR       0.015867
     37 H2           1.8920     0.8850    -0.5110 hc         1 DBR       0.025033
     38 H31A         3.1240     0.0000     1.4430 hc         1 DBR       0.015867
     39 H32          1.6790     0.8840     1.9540 hc         1 DBR       0.015867
     40 H41          3.1240    -1.2490    -0.7210 hc         1 DBR       0.021867
     41 H42          1.6800    -1.2490    -1.7430 hc         1 DBR       0.021867
     42 H5          -1.5930    -1.2490     0.7210 hc         1 DBR       0.025033
     43 H61         -0.3610    -0.3650     2.6740 hc         1 DBR       0.015867
     44 H62         -0.3610    -2.1340     2.6740 hc         1 DBR       0.015867
     45 H71         -0.3600    -3.3830     0.5110 hc         1 DBR       0.021867
     46 H72         -0.3600    -2.4990    -1.0220 hc         1 DBR       0.021867
     47 H8           1.8920    -1.2490     3.1850 hc         1 DBR       0.025033
     48 H101         3.1240    -2.4980     1.4420 hc         1 DBR       0.021867
     49 H102         1.6800    -3.3830     1.9530 hc         1 DBR       0.021867
     50 H12          1.1330    -5.0450     0.5630 hn         1 DBR       0.179500
     51 H131         1.8350    -6.1490    -1.9630 h1         1 DBR       0.027700
     52 H132         3.2800    -6.1490    -0.9410 h1         1 DBR       0.027700
     53 H141         0.6030    -7.3980    -0.2200 hc         1 DBR       0.018200
     54 H142         2.0480    -7.3980     0.8020 hc         1 DBR       0.018200
     55 H151         1.8350    -8.6470    -1.9630 hc         1 DBR       0.023200
     56 H152         3.2800    -8.6470    -0.9420 hc         1 DBR       0.023200
     57 H161         2.0470    -9.8970     0.8010 h1         1 DBR       0.016700
     58 H162         0.6030    -9.8970    -0.2200 h1         1 DBR       0.016700
     59 H31          2.5730   -11.0150    -1.8250 hn         1 DBR       0.351800
     60 H19          0.6270   -12.9210     2.2320 ha         1 DBR       0.126000
     61 H20         -1.7330   -13.4780     2.6520 ha         1 DBR       0.109000
     62 H21         -3.2810   -13.8390     0.8010 ha         1 DBR       0.123000
     63 H24          1.0670   -12.8140    -2.4850 ha         1 DBR       0.135000
     64 H25         -0.4670   -13.1840    -4.3420 ha         1 DBR       0.103000
     65 H26         -2.8260   -13.7480    -3.9410 ha         1 DBR       0.115000
     66 H281        -4.7920   -13.1060    -3.3040 h1         1 DBR       0.008867
     67 H282        -4.3540   -11.9990    -1.9950 h1         1 DBR       0.008867
     68 H283        -5.8040   -13.0040    -1.8570 h1         1 DBR       0.008867
     69 H291        -4.3850   -15.0180    -3.4020 h1         1 DBR       0.008867
     70 H292        -3.4230   -15.9380    -2.2370 h1         1 DBR       0.008867
     71 H293        -5.1600   -15.7240    -1.9770 h1         1 DBR       0.008867
@<TRIPOS>BOND
     1     1     2 1   
     2     1     5 1   
     3     1    35 1   
     4     1    36 1   
     5     2     3 1   
     6     2     4 1   
     7     2    37 1   
     8     3     8 1   
     9     3    38 1   
    10     3    39 1   
    11     4     9 1   
    12     4    40 1   
    13     4    41 1   
    14     5     6 1   
    15     5     7 1   
    16     5    42 1   
    17     6     8 1   
    18     6    43 1   
    19     6    44 1   
    20     7     9 1   
    21     7    45 1   
    22     7    46 1   
    23     8    10 1   
    24     8    47 1   
    25     9    10 1   
    26     9    11 1   
    27    10    48 1   
    28    10    49 1   
    29    11    12 1   
    30    11    17 2   
    31    12    13 1   
    32    12    50 1   
    33    13    14 1   
    34    13    51 1   
    35    13    52 1   
    36    14    15 1   
    37    14    53 1   
    38    14    54 1   
    39    15    16 1   
    40    15    55 1   
    41    15    56 1   
    42    16    18 1   
    43    16    57 1   
    44    16    58 1   
    45    18    19 1   
    46    18    59 1   
    47    19    20 2   
    48    19    21 2   
    49    19    23 1   
    50    22    32 1   
    51    22    33 1   
    52    22    34 1   
    53    23    24 ar  
    54    23    28 ar  
    55    24    25 ar  
    56    24    60 1   
    57    25    26 ar  
    58    25    61 1   
    59    26    27 ar  
    60    26    62 1   
    61    27    28 ar  
    62    27    32 ar  
    63    28    29 ar  
    64    29    30 ar  
    65    29    63 1   
    66    30    31 ar  
    67    30    64 1   
    68    31    32 ar  
    69    31    65 1   
    70    33    66 1   
    71    33    67 1   
    72    33    68 1   
    73    34    69 1   
    74    34    70 1   
    75    34    71 1   
@<TRIPOS>SUBSTRUCTURE
     1 DBR         1 TEMP              0 ****  ****    0 ROOT
