@<TRIPOS>MOLECULE
DBT
   36    37     1     0     0
SMALL
bcc


@<TRIPOS>ATOM
      1 O6          0.0490    0.3450   -0.1290 oh        1 DBT     -0.480100
      2 C6          1.4130    0.2010   -0.0580 cc        1 DBT      0.046900
      3 C5          1.9950    0.0240    1.1540 cd        1 DBT     -0.178400
      4 C4          3.4600   -0.1260    1.2910 c         1 DBT      0.492800
      5 O4          4.0140   -0.2410    2.3860 o         1 DBT     -0.469100
      6 C4A         4.2220   -0.1190    0.0150 cc        1 DBT      0.323800
      7 C7A         3.5940    0.0680   -1.2340 cd        1 DBT     -0.300000
      8 S1          4.7280    0.0300   -2.4580 ss        1 DBT      0.080700
      9 C2          5.9670   -0.2240   -1.3370 cd        1 DBT      0.343300
     10 N3          5.5930   -0.2870   -0.0540 nc        1 DBT     -0.573000
     11 C7          2.1600    0.2550   -1.3460 c         1 DBT      0.596900
     12 O7          1.5540    0.4440   -2.4090 o         1 DBT     -0.524100
     13 C8          1.2020   -0.0170    2.4140 c3        1 DBT     -0.032200
     14 C9          1.0160   -1.4390    2.9120 c3        1 DBT     -0.074400
     15 C10         0.2100   -1.4590    4.1920 c3        1 DBT     -0.077400
     16 C11         0.0210   -2.8740    4.6960 c3        1 DBT     -0.079400
     17 C12        -0.7850   -2.8970    5.9770 c3        1 DBT     -0.079400
     18 C13        -0.9760   -4.3110    6.4820 c3        1 DBT     -0.080400
     19 C14        -1.7780   -4.3390    7.7580 c3        1 DBT     -0.092100
     20 HO6        -0.1940    0.4950   -1.0600 ho        1 DBT      0.444000
     21 H2          7.0230   -0.3350   -1.6100 h5        1 DBT      0.067100
     22 H81         0.1970    0.4560    2.2450 hc        1 DBT      0.065700
     23 H82         1.7390    0.5820    3.1990 hc        1 DBT      0.065700
     24 H91         2.0230   -1.9020    3.0900 hc        1 DBT      0.047200
     25 H92         0.4960   -2.0490    2.1280 hc        1 DBT      0.047200
     26 H101        0.7310   -0.8470    4.9750 hc        1 DBT      0.041200
     27 H102       -0.7920   -0.9860    4.0140 hc        1 DBT      0.041200
     28 H111        1.0230   -3.3460    4.8740 hc        1 DBT      0.040200
     29 H112       -0.4990   -3.4860    3.9130 hc        1 DBT      0.040200
     30 H121       -0.2640   -2.2860    6.7610 hc        1 DBT      0.039700
     31 H122       -1.7870   -2.4230    5.8000 hc        1 DBT      0.039700
     32 H131       -1.4960   -4.9210    5.6970 hc        1 DBT      0.038200
     33 H132        0.0270   -4.7840    6.6570 hc        1 DBT      0.038200
     34 H141       -1.9070   -5.3900    8.1130 hc        1 DBT      0.032033
     35 H142       -1.2630   -3.7570    8.5600 hc        1 DBT      0.032033
     36 H143       -2.7900   -3.8950    7.5980 hc        1 DBT      0.032033
@<TRIPOS>BOND
     1    1    2 1   
     2    1   20 1   
     3    2    3 2   
     4    2   11 1   
     5    3    4 1   
     6    3   13 1   
     7    4    5 2   
     8    4    6 1   
     9    6    7 2   
    10    6   10 1   
    11    7    8 1   
    12    7   11 1   
    13    8    9 1   
    14    9   10 2   
    15    9   21 1   
    16   11   12 2   
    17   13   14 1   
    18   13   22 1   
    19   13   23 1   
    20   14   15 1   
    21   14   24 1   
    22   14   25 1   
    23   15   16 1   
    24   15   26 1   
    25   15   27 1   
    26   16   17 1   
    27   16   28 1   
    28   16   29 1   
    29   17   18 1   
    30   17   30 1   
    31   17   31 1   
    32   18   19 1   
    33   18   32 1   
    34   18   33 1   
    35   19   34 1   
    36   19   35 1   
    37   19   36 1   
@<TRIPOS>SUBSTRUCTURE
     1 DBT         1 TEMP              0 ****  ****    0 ROOT
