@<TRIPOS>MOLECULE
molecule
   36    37     1     0     0
SMALL
bcc


@<TRIPOS>ATOM
      1 O6           0.0000     0.0000     0.0000 oh         1 DBT      -0.474100
      2 C6           1.3530     0.0000     0.0000 cc         1 DBT       0.047900
      3 C5           2.0340     0.0000     1.1640 cd         1 DBT      -0.168400
      4 C4           3.4950     0.0060     1.1960 c          1 DBT       0.488800
      5 O4           4.0720     0.0110     2.2660 o          1 DBT      -0.466100
      6 C4A          4.2870     0.0000    -0.0720 cc         1 DBT       0.352800
      7 C7A          3.5570     0.0000    -1.2610 cd         1 DBT      -0.196000
      8 S1           4.8370     0.0010    -2.4910 ss         1 DBT      -0.148300
      9 C2           6.1880     0.0020    -1.4000 cd         1 DBT       0.496300
     10 N3           5.6110     0.0010    -0.2240 nc         1 DBT      -0.683000
     11 C7           2.1060     0.0010    -1.2840 c          1 DBT       0.587900
     12 O7           1.5100     0.0010    -2.3440 o          1 DBT      -0.499100
     13 C8           1.2700     0.0010     2.4620 c3         1 DBT      -0.028200
     14 C9           1.0110    -1.4420     2.9010 c3         1 DBT      -0.075400
     15 C10          0.2350    -1.4420     4.2200 c3         1 DBT      -0.080400
     16 C11         -0.0250    -2.8830     4.6610 c3         1 DBT      -0.081400
     17 C12         -0.8000    -2.8830     5.9780 c3         1 DBT      -0.081400
     18 C13         -1.0590    -4.3250     6.4190 c3         1 DBT      -0.084400
     19 C14         -1.8350    -4.3240     7.7380 c3         1 DBT      -0.092100
     20 HO6         -0.3140     0.6830    -0.5690 ho         1 DBT       0.436000
     21 H2           7.1850    -0.3620    -1.6200 h5         1 DBT       0.089100
     22 H81          1.8490     0.5120     3.2210 hc         1 DBT       0.064700
     23 H82          0.3240     0.5110     2.3240 hc         1 DBT       0.064700
     24 H91          1.9570    -1.9530     3.0390 hc         1 DBT       0.049700
     25 H92          0.4320    -1.9520     2.1420 hc         1 DBT       0.049700
     26 H101         0.8150    -0.9310     4.9800 hc         1 DBT       0.042700
     27 H102        -0.7100    -0.9300     4.0830 hc         1 DBT       0.042700
     28 H111         0.9200    -3.3940     4.7980 hc         1 DBT       0.042200
     29 H112        -0.6040    -3.3930     3.9010 hc         1 DBT       0.042200
     30 H121        -1.7450    -2.3720     5.8410 hc         1 DBT       0.041200
     31 H122        -0.2210    -2.3720     6.7380 hc         1 DBT       0.041200
     32 H131        -0.1140    -4.8360     6.5560 hc         1 DBT       0.040200
     33 H132        -1.6390    -4.8360     5.6590 hc         1 DBT       0.040200
     34 H141        -2.7810    -3.8130     7.6000 hc         1 DBT       0.032367
     35 H142        -2.0190    -5.3450     8.0500 hc         1 DBT       0.032367
     36 H143        -1.2560    -3.8130     8.4970 hc         1 DBT       0.032367
@<TRIPOS>BOND
     1     1     2 1
     2     1    20 1
     3     2     3 2
     4     2    11 1
     5     3     4 1
     6     3    13 1
     7     4     5 2
     8     4     6 1
     9     6     7 2
    10     6    10 1
    11     7     8 1
    12     7    11 1
    13     8     9 1
    14     9    10 2
    15     9    21 1
    16    11    12 2
    17    13    14 1
    18    13    22 1
    19    13    23 1
    20    14    15 1
    21    14    24 1
    22    14    25 1
    23    15    16 1
    24    15    26 1
    25    15    27 1
    26    16    17 1
    27    16    28 1
    28    16    29 1
    29    17    18 1
    30    17    30 1
    31    17    31 1
    32    18    19 1
    33    18    32 1
    34    18    33 1
    35    19    34 1
    36    19    35 1
    37    19    36 1
@<TRIPOS>SUBSTRUCTURE
     1 DBT         1 TEMP              0 ****  ****    0 ROOT
