@<TRIPOS>MOLECULE
DBV
   77    80     1     0     0
SMALL
bcc


@<TRIPOS>ATOM
      1 NA           0.0000     0.0000     0.0000 ns         1 DBV      -0.048100
      2 C1A          1.3440     0.0000     0.0000 c          1 DBV       0.615700
      3 C2A          1.8270     0.0000     1.3200 cc         1 DBV      -0.225400
      4 C3A          0.7390     0.0060     2.1740 cd         1 DBV      -0.003000
      5 C4A         -0.4560     0.0010     1.3110 cd         1 DBV      -0.191400
      6 CMA          3.2760    -0.0010     1.7340 c3         1 DBV       0.094100
      7 CBA          1.5910     0.8280     4.2930 c2         1 DBV      -0.164000
      8 OA           2.0420    -0.0000    -1.0000 o          1 DBV      -0.693500
      9 CHA         -1.7560     0.0030     1.7200 ce         1 DBV       0.031800
     10 CAA          0.7670     0.0090     3.6450 cf         1 DBV      -0.069000
     11 NB          -2.6550    -0.6820    -0.4850 na         1 DBV       0.404900
     12 C1B         -2.7950    -0.1700     0.7770 cc         1 DBV      -0.315100
     13 C2B         -4.1360     0.1520     0.9720 cd         1 DBV      -0.137300
     14 C3B         -4.8190    -0.1630    -0.1900 cd         1 DBV      -0.048300
     15 C4B         -3.8920    -0.6880    -1.0930 cc         1 DBV      -0.315100
     16 CHB         -4.1700    -1.1360    -2.3910 ce         1 DBV       0.188800
     17 CMB         -4.7350     0.7450     2.2210 c3         1 DBV       0.093200
     18 CAB         -6.2950     0.0180    -0.4310 c3         1 DBV       0.049900
     19 CBB         -6.5490     1.4070    -1.0190 c3         1 DBV      -0.132400
     20 CGB         -8.0260     1.5880    -1.2610 c          1 DBV       0.981600
     21 O1B         -8.7950     0.6980    -0.9910 o          1 DBV      -0.900300
     22 O2B         -8.4850     2.7390    -1.7760 o          1 DBV      -0.900300
     23 CHC          0.3020    -2.6170    -3.8150 c3         1 DBV      -0.030700
     24 NC          -1.8590    -1.8190    -2.8220 nd         1 DBV      -0.636300
     25 C1C         -3.1360    -1.6110    -3.2020 cd         1 DBV      -0.036400
     26 C2C         -3.2420    -1.9590    -4.5680 cd         1 DBV      -0.021200
     27 C3C         -1.9970    -2.3640    -4.9600 cc         1 DBV      -0.325800
     28 C4C         -1.1630    -2.2680    -3.8420 cc         1 DBV       0.409600
     29 CMC         -1.6010    -2.8350    -6.3350 c3         1 DBV       0.101100
     30 CAC         -4.4800    -1.8910    -5.4250 c3         1 DBV       0.039800
     31 CBC         -5.2300    -3.2220    -5.3440 c3         1 DBV      -0.128400
     32 CGC         -6.4680    -3.1530    -6.2000 c          1 DBV       0.980600
     33 O1C         -6.7260    -2.1450    -6.8110 o          1 DBV      -0.901300
     34 O2C         -7.2860    -4.2150    -6.2820 o          1 DBV      -0.901300
     35 ND           0.0940    -3.3880    -1.4900 ns         1 DBV      -0.176900
     36 C1D          0.8300    -2.4870    -2.3840 c3         1 DBV       0.028900
     37 C2D          2.2740    -2.9280    -2.3280 c2         1 DBV      -0.079400
     38 C3D          2.3310    -3.9660    -1.4780 ce         1 DBV      -0.187200
     39 C4D          0.9810    -4.2490    -0.9600 c          1 DBV       0.629700
     40 CMD          3.4290    -2.3170    -3.0780 c3         1 DBV       0.082100
     41 CAD          3.5570    -4.7080    -1.1170 ce         1 DBV      -0.080000
     42 CBD          3.4930    -5.7200    -0.2630 c2         1 DBV      -0.179000
     43 OD           0.7080    -5.1320    -0.1680 o          1 DBV      -0.710500
     44 HNA         -0.5800    -0.0010    -0.8160 hn         1 DBV       0.206500
     45 HMA1         3.9000    -0.1460     0.8610 hc         1 DBV       0.008033
     46 HMA2         3.5190     0.9470     2.1980 hc         1 DBV       0.008033
     47 HMA3         3.4490    -0.8040     2.4400 hc         1 DBV       0.008033
     48 HBA1         1.6110     0.8290     5.3760 ha         1 DBV       0.086500
     49 HBA2         2.1960     1.5360     3.7400 ha         1 DBV       0.086500
     50 HHA1        -1.9870     0.0040     2.7790 ha         1 DBV       0.120000
     51 HAA1         0.1380    -0.6760     4.2000 ha         1 DBV       0.107000
     52 HNB         -1.8000    -1.0010    -0.8950 hn         1 DBV       0.160700
     53 HHB1        -5.1640    -1.0060    -2.8030 ha         1 DBV       0.154000
     54 HMB1        -4.3590     0.2150     3.0880 hc         1 DBV       0.005367
     55 HMB2        -4.4630     1.7910     2.2910 hc         1 DBV       0.005367
     56 HMB3        -5.8140     0.6540     2.1830 hc         1 DBV       0.005367
     57 HAB1        -6.6430    -0.7370    -1.1260 hc         1 DBV       0.035200
     58 HAB2        -6.8290    -0.0810     0.5060 hc         1 DBV       0.035200
     59 HBB1        -6.0150     1.5060    -1.9560 hc         1 DBV       0.007200
     60 HBB2        -6.2020     2.1620    -0.3240 hc         1 DBV       0.007200
     61 HHC1         0.4380    -3.6350    -4.1590 hc         1 DBV       0.028700
     62 HHC2         0.8460    -1.9410    -4.4630 hc         1 DBV       0.028700
     63 HMC1        -1.8490    -3.8840    -6.4440 hc         1 DBV      -0.001300
     64 HMC2        -0.5340    -2.7000    -6.4700 hc         1 DBV      -0.001300
     65 HMC3        -2.1340    -2.2590    -7.0820 hc         1 DBV      -0.001300
     66 HAC1        -5.1220    -1.0930    -5.0710 hc         1 DBV       0.033700
     67 HAC2        -4.1980    -1.6980    -6.4530 hc         1 DBV       0.033700
     68 HBC1        -4.5890    -4.0200    -5.6990 hc         1 DBV       0.007200
     69 HBC2        -5.5120    -3.4160    -4.3160 hc         1 DBV       0.007200
     70 HND         -0.8890    -3.3630    -1.3050 hn         1 DBV       0.225500
     71 H1D1         0.7400    -1.4640    -2.0380 h1         1 DBV       0.073700
     72 HMD1         4.2430    -2.1200    -2.3910 hc         1 DBV       0.011033
     73 HMD2         3.1110    -1.3880    -3.5360 hc         1 DBV       0.011033
     74 HMD3         3.7640    -3.0020    -3.8470 hc         1 DBV       0.011033
     75 HAD1         4.5090    -4.4250    -1.5500 ha         1 DBV       0.089000
     76 HBD1         2.5410    -6.0030     0.1700 ha         1 DBV       0.101500
     77 HBD2         4.3910    -6.2630     0.0020 ha         1 DBV       0.101500
@<TRIPOS>BOND
     1     1     2 1   
     2     1     5 1   
     3     1    44 1   
     4     2     3 1   
     5     2     8 2   
     6     3     4 2   
     7     3     6 1   
     8     4     5 1   
     9     4    10 1   
    10     5     9 2   
    11     6    45 1   
    12     6    46 1   
    13     6    47 1   
    14     7    10 2   
    15     7    48 1   
    16     7    49 1   
    17     9    12 1   
    18     9    50 1   
    19    10    51 1   
    20    11    12 1   
    21    11    15 1   
    22    11    52 1   
    23    12    13 2   
    24    13    14 1   
    25    13    17 1   
    26    14    15 2   
    27    14    18 1   
    28    15    16 1   
    29    16    25 2   
    30    16    53 1   
    31    17    54 1   
    32    17    55 1   
    33    17    56 1   
    34    18    19 1   
    35    18    57 1   
    36    18    58 1   
    37    19    20 1   
    38    19    59 1   
    39    19    60 1   
    40    20    21 1   
    41    20    22 1   
    42    23    28 1   
    43    23    36 1   
    44    23    61 1   
    45    23    62 1   
    46    24    25 1   
    47    24    28 2   
    48    25    26 1   
    49    26    27 2   
    50    26    30 1   
    51    27    28 1   
    52    27    29 1   
    53    29    63 1   
    54    29    64 1   
    55    29    65 1   
    56    30    31 1   
    57    30    66 1   
    58    30    67 1   
    59    31    32 1   
    60    31    68 1   
    61    31    69 1   
    62    32    33 1   
    63    32    34 1   
    64    35    36 1   
    65    35    39 1   
    66    35    70 1   
    67    36    37 1   
    68    36    71 1   
    69    37    38 2   
    70    37    40 1   
    71    38    39 1   
    72    38    41 1   
    73    39    43 2   
    74    40    72 1   
    75    40    73 1   
    76    40    74 1   
    77    41    42 2   
    78    41    75 1   
    79    42    76 1   
    80    42    77 1   
@<TRIPOS>SUBSTRUCTURE
     1 DBV         1 TEMP              0 ****  ****    0 ROOT
