@<TRIPOS>MOLECULE
DBW
   38    42     1     0     0
SMALL
bcc


@<TRIPOS>ATOM
      1 C1           0.0000     0.0000     0.0000 cc         1 DBW      -0.057300
      2 C2           1.4260     0.0000     0.0000 cc         1 DBW      -0.118300
      3 N3          -0.6980     0.0100     1.1890 na         1 DBW       0.348900
      4 C4          -0.6370    -0.0160    -1.2070 cf         1 DBW      -0.292200
      5 C5           2.0880     0.0000     1.1750 cd         1 DBW      -0.032300
      6 C6           2.1200     0.0010    -1.3370 c3         1 DBW       0.143100
      7 C7          -2.1520     0.0250     1.2680 c3         1 DBW       0.048600
      8 C8           0.0070     0.0070     2.3730 cc         1 DBW      -0.168300
      9 C9          -2.1030    -0.0120    -1.2570 ca         1 DBW       0.033200
     10 C10          3.5900     0.0030     1.2740 c3         1 DBW       0.141100
     11 C11          1.3470     0.0010     2.3830 cd         1 DBW      -0.198000
     12 C12          3.5570    -0.4210    -1.1850 c2         1 DBW      -0.031100
     13 C13         -2.8340     0.0140    -0.0650 ca         1 DBW      -0.158300
     14 C14         -2.7640    -0.0300    -2.4910 ca         1 DBW      -0.112000
     15 C15          4.2060    -0.4200    -0.0320 c2         1 DBW      -0.040100
     16 O16          4.3790    -0.8530    -2.1820 os         1 DBW      -0.317900
     17 C17         -4.2190     0.0220    -0.1230 ca         1 DBW       0.125100
     18 C18         -4.1420    -0.0230    -2.5320 ca         1 DBW      -0.109000
     19 O19          5.4850    -0.8500    -0.2200 os         1 DBW      -0.318900
     20 C20          5.7120    -0.7490    -1.6400 c3         1 DBW       0.430200
     21 C21         -4.8700     0.0100    -1.3520 ca         1 DBW       0.049100
     22 O22         -4.9450     0.0430     1.0280 oh         1 DBW      -0.498100
     23 O23         -6.2300     0.0200    -1.3970 oh         1 DBW      -0.496100
     24 H4          -0.0640     0.0520    -2.1230 ha         1 DBW       0.139000
     25 H6           1.6180    -0.7060    -1.9870 hc         1 DBW       0.039200
     26 H7          -2.4580     0.9170     1.8020 h1         1 DBW       0.023700
     27 H8          -0.5310     0.0090     3.3130 h4         1 DBW       0.126000
     28 H10          3.9290     1.0020     1.5200 hc         1 DBW       0.031200
     29 H11          1.8730    -0.0030     3.3300 ha         1 DBW       0.120000
     30 H14         -2.1930    -0.0560    -3.4110 ha         1 DBW       0.111000
     31 H18         -4.6560    -0.0320    -3.4860 ha         1 DBW       0.111000
     32 H20          6.3160    -1.5810    -1.9800 h2         1 DBW       0.010200
     33 H20A         6.1350     0.2190    -1.8800 h2         1 DBW       0.010200
     34 HO22        -5.3660    -0.7910     1.1490 ho         1 DBW       0.410000
     35 HO23        -6.5300     0.8720    -1.6670 ho         1 DBW       0.404000
     36 H10A         3.8970    -0.6850     2.0520 hc         1 DBW       0.031200
     37 H6A          2.0960     1.0080    -1.7370 hc         1 DBW       0.039200
     38 H7A         -2.4750    -0.8450     1.8260 h1         1 DBW       0.023700
@<TRIPOS>BOND
     1     1     2 1   
     2     1     3 1   
     3     1     4 2   
     4     2     5 2   
     5     2     6 1   
     6     3     7 1   
     7     3     8 1   
     8     4     9 1   
     9     4    24 1   
    10     5    10 1   
    11     5    11 1   
    12     6    12 1   
    13     6    25 1   
    14     6    37 1   
    15     7    13 1   
    16     7    26 1   
    17     7    38 1   
    18     8    11 2   
    19     8    27 1   
    20     9    13 ar  
    21     9    14 ar  
    22    10    15 1   
    23    10    28 1   
    24    10    36 1   
    25    11    29 1   
    26    12    15 2   
    27    12    16 1   
    28    13    17 ar  
    29    14    18 ar  
    30    14    30 1   
    31    15    19 1   
    32    16    20 1   
    33    17    21 ar  
    34    17    22 1   
    35    18    21 ar  
    36    18    31 1   
    37    19    20 1   
    38    20    32 1   
    39    20    33 1   
    40    21    23 1   
    41    22    34 1   
    42    23    35 1   
@<TRIPOS>SUBSTRUCTURE
     1 DBW         1 TEMP              0 ****  ****    0 ROOT
