@<TRIPOS>MOLECULE
molecule
   38    42     1     0     0
SMALL
bcc


@<TRIPOS>ATOM
      1 C1           0.0000     0.0000     0.0000 cc         1 DBW       0.099700
      2 C2           1.4260     0.0000     0.0000 cc         1 DBW      -0.121300
      3 N3          -0.6980     0.0100     1.1890 na         1 DBW      -0.113100
      4 C4          -0.6370    -0.0160    -1.2070 cf         1 DBW      -0.287200
      5 C5           2.0880     0.0000     1.1750 cd         1 DBW      -0.016300
      6 C6           2.1200     0.0010    -1.3370 c3         1 DBW       0.062100
      7 C7          -2.1520     0.0250     1.2680 c3         1 DBW       0.118600
      8 C8           0.0070     0.0070     2.3730 cc         1 DBW      -0.016300
      9 C9          -2.1030    -0.0120    -1.2570 ca         1 DBW       0.021200
     10 C10          3.5900     0.0030     1.2740 c3         1 DBW       0.051100
     11 C11          1.3470     0.0010     2.3830 cd         1 DBW      -0.237000
     12 C12          3.5570    -0.4210    -1.1850 c2         1 DBW      -0.026100
     13 C13         -2.8340     0.0140    -0.0650 ca         1 DBW      -0.140300
     14 C14         -2.7640    -0.0300    -2.4910 ca         1 DBW      -0.135000
     15 C15          4.2060    -0.4200    -0.0320 c2         1 DBW      -0.034100
     16 O16          4.3790    -0.8530    -2.1820 os         1 DBW      -0.332900
     17 C17         -4.2190     0.0220    -0.1230 ca         1 DBW       0.112100
     18 C18         -4.1420    -0.0230    -2.5320 ca         1 DBW      -0.131000
     19 O19          5.4850    -0.8500    -0.2200 os         1 DBW      -0.334900
     20 C20          5.7120    -0.7490    -1.6400 c3         1 DBW       0.332200
     21 C21         -4.8700     0.0100    -1.3520 ca         1 DBW       0.044100
     22 O22         -4.9450     0.0430     1.0280 oh         1 DBW      -0.521100
     23 O23         -6.2300     0.0200    -1.3970 oh         1 DBW      -0.519100
     24 H4          -0.0640     0.0520    -2.1230 ha         1 DBW       0.151000
     25 H6           1.6180    -0.7060    -1.9870 hc         1 DBW       0.076200
     26 H7          -2.4580     0.9170     1.8020 h1         1 DBW       0.056200
     27 H8          -0.5310     0.0090     3.3130 h4         1 DBW       0.156000
     28 H10          3.9290     1.0020     1.5200 hc         1 DBW       0.072700
     29 H11          1.8730    -0.0030     3.3300 ha         1 DBW       0.146000
     30 H14         -2.1930    -0.0560    -3.4110 ha         1 DBW       0.139000
     31 H18         -4.6560    -0.0320    -3.4860 ha         1 DBW       0.140000
     32 H20          6.3160    -1.5810    -1.9800 h2         1 DBW       0.065700
     33 H20A         6.1350     0.2190    -1.8800 h2         1 DBW       0.065700
     34 HO22        -5.3660    -0.7910     1.1490 ho         1 DBW       0.428000
     35 HO23        -6.5300     0.8720    -1.6670 ho         1 DBW       0.421000
     36 H10A         3.8970    -0.6850     2.0520 hc         1 DBW       0.072700
     37 H6A          2.0960     1.0080    -1.7370 hc         1 DBW       0.076200
     38 H7A         -2.4750    -0.8450     1.8260 h1         1 DBW       0.056200
@<TRIPOS>BOND
     1     1     2 1
     2     1     3 1
     3     1     4 2
     4     2     5 2
     5     2     6 1
     6     3     7 1
     7     3     8 1
     8     4     9 1
     9     5    10 1
    10     5    11 1
    11     6    12 1
    12     7    13 1
    13     8    11 2
    14     9    13 ar
    15     9    14 ar
    16    10    15 1
    17    12    15 2
    18    12    16 1
    19    13    17 ar
    20    14    18 ar
    21    15    19 1
    22    16    20 1
    23    17    21 ar
    24    17    22 1
    25    18    21 ar
    26    19    20 1
    27    21    23 1
    28     4    24 1
    29     6    25 1
    30     7    26 1
    31     8    27 1
    32    10    28 1
    33    11    29 1
    34    14    30 1
    35    18    31 1
    36    20    32 1
    37    20    33 1
    38    22    34 1
    39    23    35 1
    40    10    36 1
    41     6    37 1
    42     7    38 1
@<TRIPOS>SUBSTRUCTURE
     1 DBW         1 TEMP              0 ****  ****    0 ROOT
