@<TRIPOS>MOLECULE
DBX
   17    17     1     0     0
SMALL
bcc


@<TRIPOS>ATOM
      1 C1          0.0060   -0.0680   -0.0240 ca        1 DBX     -0.221500
      2 O1         -0.7820   -1.2300   -2.1740 o         1 DBX     -0.740867
      3 S1         -1.0160   -0.0120   -1.5080 s6        1 DBX      1.463100
      4 C2          1.4070   -0.1740   -0.0100 ca        1 DBX      0.177100
      5 O2         -2.3310    0.0940   -0.9870 o         1 DBX     -0.740867
      6 C3         -0.6450   -0.0030    1.2030 ca        1 DBX     -0.100000
      7 O3         -0.6040    1.1400   -2.2060 o         1 DBX     -0.740867
      8 C4          1.4670   -0.1450    2.4110 ca        1 DBX     -0.116000
      9 O4          2.0530   -0.2380   -1.2250 oh        1 DBX     -0.473100
     10 C5          0.0720   -0.0410    2.4080 ca        1 DBX      0.041100
     11 O5         -0.5510    0.0230    3.6430 oh        1 DBX     -0.526100
     12 C6          2.1350   -0.2120    1.1920 ca        1 DBX     -0.231000
     13 H3         -1.7470    0.0800    1.2140 ha        1 DBX      0.166000
     14 H4          2.0160   -0.1740    3.3610 ha        1 DBX      0.124000
     15 HO4         3.0010   -0.3080   -1.0500 ho        1 DBX      0.395000
     16 HO5        -1.5020    0.0920    3.4760 ho        1 DBX      0.411000
     17 H6          3.2300   -0.2950    1.1720 ha        1 DBX      0.112000
@<TRIPOS>BOND
     1    1    3 1   
     2    1    4 ar  
     3    1    6 ar  
     4    2    3 1   
     5    3    5 1   
     6    3    7 1   
     7    4    9 1   
     8    4   12 ar  
     9    6   10 ar  
    10    6   13 1   
    11    8   10 ar  
    12    8   12 ar  
    13    8   14 1   
    14    9   15 1   
    15   10   11 1   
    16   11   16 1   
    17   12   17 1   
@<TRIPOS>SUBSTRUCTURE
     1 DBX         1 TEMP              0 ****  ****    0 ROOT
