@<TRIPOS>MOLECULE
molecule
   17    17     1     0     0
SMALL
bcc


@<TRIPOS>ATOM
      1 C1           0.0000     0.0000     0.0000 ca         1 DBX      -0.251500
      2 O1          -1.2200    -1.3440    -1.8020 o          1 DBX      -0.704200
      3 S1          -0.8810     0.0080    -1.5260 s6         1 DBX       1.323100
      4 C2           1.3870     0.0000     0.0000 ca         1 DBX       0.183100
      5 O2          -2.1940     0.7400    -1.2850 o          1 DBX      -0.704200
      6 C3          -0.6910    -0.0020     1.1960 ca         1 DBX      -0.031000
      7 O3          -0.1290     0.8190    -2.4190 o          1 DBX      -0.704200
      8 C4           1.3890    -0.0130     2.3970 ca         1 DBX      -0.121000
      9 O4           2.0670     0.0020    -1.1780 oh         1 DBX      -0.484100
     10 C5           0.0020    -0.0080     2.3970 ca         1 DBX       0.038100
     11 O5          -0.6780    -0.0090     3.5750 oh         1 DBX      -0.530100
     12 C6           2.0800     0.0000     1.2010 ca         1 DBX      -0.214000
     13 H3          -1.7740     0.0020     1.1950 ha         1 DBX       0.165000
     14 H4           1.9310    -0.0150     3.3350 ha         1 DBX       0.117000
     15 HO4          2.6730    -0.7200    -1.1920 ho         1 DBX       0.402000
     16 HO5         -0.8760    -0.8970     3.8230 ho         1 DBX       0.401000
     17 H6           3.1630    -0.0020     1.2010 ha         1 DBX       0.116000
@<TRIPOS>BOND
     1     4     1 ar
     2     3     1 1
     3     1     6 ar
     4     2     3 1
     5     3     7 1
     6     3     5 1
     7     9     4 1
     8     4    12 ar
     9     6    10 ar
    10     6    13 1
    11    12     8 ar
    12     8    10 ar
    13     8    14 1
    14     9    15 1
    15    10    11 1
    16    11    16 1
    17    12    17 1
@<TRIPOS>SUBSTRUCTURE
     1 DBX         1 TEMP              0 ****  ****    0 ROOT
