@<TRIPOS>MOLECULE
molecule
   46    48     1     0     0
SMALL
bcc


@<TRIPOS>ATOM
      1 FAG          0.0000     0.0000     0.0000 f          1 DC3      -0.157900
      2 CAE          1.3520     0.0000     0.0000 ca         1 DC3       0.094900
      3 CAF          2.0420     0.0000     1.1990 ca         1 DC3      -0.161000
      4 CAA          3.4270     0.0000     1.2000 ca         1 DC3       0.154900
      5 FAH          4.1020    -0.0010     2.3700 f          1 DC3      -0.087900
      6 CAB          4.1190    -0.0020    -0.0010 ca         1 DC3       0.118900
      7 FAI          5.4700    -0.0020    -0.0020 f          1 DC3      -0.092900
      8 CAC          3.4250    -0.0020    -1.1990 ca         1 DC3      -0.105000
      9 CAD          2.0440    -0.0080    -1.1980 ca         1 DC3      -0.170300
     10 CAJ          1.2910    -0.0080    -2.5040 c3         1 DC3      -0.044100
     11 CAK          0.8240    -1.4290    -2.8220 c3         1 DC3       0.107500
     12 NAM         -0.1500    -1.8640    -1.8120 nz         1 DC3      -0.814600
     13 CAL          0.1690    -1.4540    -4.2050 c3         1 DC3      -0.130400
     14 CAN         -0.1850    -2.8960    -4.5760 c3         1 DC3       0.064300
     15 NAO         -0.8130    -2.9180    -5.8990 na         1 DC3       0.101400
     16 CAP         -0.4020    -3.6570    -6.9560 cc         1 DC3      -0.285600
     17 NAS         -1.8500    -2.2450    -6.2520 nd         1 DC3      -0.221800
     18 NAR         -2.1500    -2.4870    -7.4790 nc         1 DC3      -0.324000
     19 CAQ         -1.2670    -3.3730    -7.9730 cc         1 DC3       0.374800
     20 CAT         -1.2390    -3.9300    -9.3490 ca         1 DC3      -0.129500
     21 CAY         -2.1970    -3.5400   -10.2810 ca         1 DC3      -0.092000
     22 CAX         -2.1660    -4.0600   -11.5590 ca         1 DC3      -0.077300
     23 CAZ         -3.2030    -3.6380   -12.5690 c3         1 DC3      -0.049800
     24 CAW         -1.1850    -4.9690   -11.9140 ca         1 DC3      -0.108000
     25 CAV         -0.2300    -5.3590   -10.9920 ca         1 DC3      -0.122000
     26 CAU         -0.2500    -4.8410    -9.7130 ca         1 DC3      -0.123000
     27 H1           1.5000     0.0250     2.1370 ha         1 DC3       0.189000
     28 H2           3.9660    -0.0060    -2.1380 ha         1 DC3       0.174000
     29 H3           0.4310     0.6460    -2.4240 hc         1 DC3       0.100700
     30 H4           1.9400     0.3440    -3.2960 hc         1 DC3       0.100700
     31 H5           1.6750    -2.0990    -2.8140 hx         1 DC3       0.113700
     32 H6          -0.8730    -1.1770    -1.7280 hn         1 DC3       0.459800
     33 H7           0.3110    -1.9720    -0.9300 hn         1 DC3       0.459800
     34 H9          -0.7320    -0.8540    -4.1880 hc         1 DC3       0.107200
     35 H10          0.8580    -1.0520    -4.9380 hc         1 DC3       0.107200
     36 H11          0.7160    -3.4960    -4.5930 h1         1 DC3       0.058700
     37 H12         -0.8740    -3.2980    -3.8430 h1         1 DC3       0.058700
     38 H13          0.4430    -4.3340    -6.9890 h4         1 DC3       0.191000
     39 H14         -2.9330    -2.7880   -10.0200 ha         1 DC3       0.153000
     40 H15         -4.1810    -3.6350   -12.1020 hc         1 DC3       0.050367
     41 H16         -2.9720    -2.6430   -12.9300 hc         1 DC3       0.050367
     42 H17         -3.2010    -4.3330   -13.4000 hc         1 DC3       0.050367
     43 H18         -1.1650    -5.3760   -12.9180 ha         1 DC3       0.141000
     44 H19          0.5370    -6.0690   -11.2760 ha         1 DC3       0.138000
     45 H20          0.4980    -5.1470    -8.9920 ha         1 DC3       0.119000
     46 HAM3        -0.5360    -2.7470    -2.0790 hn         1 DC3       0.459800
@<TRIPOS>BOND
     1    24    25 ar
     2    24    22 ar
     3    25    26 ar
     4    23    22 1
     5    22    21 ar
     6    26    20 ar
     7    21    20 ar
     8    20    19 1
     9    18    19 1
    10    18    17 2
    11    19    16 2
    12    17    15 1
    13    16    15 1
    14    15    14 1
    15    14    13 1
    16    13    11 1
    17    11    10 1
    18    11    12 1
    19    10     9 1
    20     8     9 ar
    21     8     6 ar
    22     7     6 1
    23     9     2 ar
    24     6     4 ar
    25     2     1 1
    26     2     3 ar
    27     4     3 ar
    28     4     5 1
    29     3    27 1
    30     8    28 1
    31    10    29 1
    32    10    30 1
    33    11    31 1
    34    12    32 1
    35    12    33 1
    36    13    34 1
    37    13    35 1
    38    14    36 1
    39    14    37 1
    40    16    38 1
    41    21    39 1
    42    23    40 1
    43    23    41 1
    44    23    42 1
    45    24    43 1
    46    25    44 1
    47    26    45 1
    48    46    12 1
@<TRIPOS>SUBSTRUCTURE
     1 DC3         1 TEMP              0 ****  ****    0 ROOT
