@<TRIPOS>MOLECULE
DC3
   46    48     1     0     0
SMALL
bcc


@<TRIPOS>ATOM
      1 FAG          0.0000     0.0000     0.0000 f          1 DC3      -0.132900
      2 CAE          1.3520     0.0000     0.0000 ca         1 DC3       0.063900
      3 CAF          2.0420     0.0000     1.1990 ca         1 DC3      -0.114000
      4 CAA          3.4270     0.0000     1.2000 ca         1 DC3       0.146900
      5 FAH          4.1020    -0.0010     2.3700 f          1 DC3      -0.085900
      6 CAB          4.1190    -0.0020    -0.0010 ca         1 DC3       0.109900
      7 FAI          5.4700    -0.0020    -0.0020 f          1 DC3      -0.088900
      8 CAC          3.4250    -0.0020    -1.1990 ca         1 DC3      -0.060000
      9 CAD          2.0440    -0.0080    -1.1980 ca         1 DC3      -0.180300
     10 CAJ          1.2910    -0.0080    -2.5040 c3         1 DC3       0.036900
     11 CAK          0.8240    -1.4290    -2.8220 c3         1 DC3      -0.062500
     12 NAM         -0.1500    -1.8640    -1.8120 nz         1 DC3       0.029400
     13 CAL          0.1690    -1.4540    -4.2050 c3         1 DC3      -0.062400
     14 CAN         -0.1850    -2.8960    -4.5760 c3         1 DC3      -0.018700
     15 NAO         -0.8130    -2.9180    -5.8990 na         1 DC3       0.554400
     16 CAP         -0.4020    -3.6570    -6.9560 cc         1 DC3      -0.444600
     17 NAS         -1.8500    -2.2450    -6.2520 nc         1 DC3      -0.393800
     18 NAR         -2.1500    -2.4870    -7.4790 nd         1 DC3      -0.271000
     19 CAQ         -1.2670    -3.3730    -7.9730 cd         1 DC3       0.379800
     20 CAT         -1.2390    -3.9300    -9.3490 ca         1 DC3      -0.135500
     21 CAY         -2.1970    -3.5400   -10.2810 ca         1 DC3      -0.066000
     22 CAX         -2.1660    -4.0600   -11.5590 ca         1 DC3      -0.084300
     23 CAZ         -3.2030    -3.6380   -12.5690 c3         1 DC3       0.062200
     24 CAW         -1.1850    -4.9690   -11.9140 ca         1 DC3      -0.080000
     25 CAV         -0.2300    -5.3590   -10.9920 ca         1 DC3      -0.094000
     26 CAU         -0.2500    -4.8410    -9.7130 ca         1 DC3      -0.101000
     27 H1           1.5000     0.0250     2.1370 ha         1 DC3       0.157000
     28 H2           3.9660    -0.0060    -2.1380 ha         1 DC3       0.142000
     29 H3           0.4310     0.6460    -2.4240 hc         1 DC3       0.064200
     30 H4           1.9400     0.3440    -3.2960 hc         1 DC3       0.064200
     31 H5           1.6750    -2.0990    -2.8140 hx         1 DC3       0.090700
     32 H6          -0.8730    -1.1770    -1.7280 hn         1 DC3       0.239467
     33 H7           0.3110    -1.9720    -0.9300 hn         1 DC3       0.239467
     34 H9          -0.7320    -0.8540    -4.1880 hc         1 DC3       0.073200
     35 H10          0.8580    -1.0520    -4.9380 hc         1 DC3       0.073200
     36 H11          0.7160    -3.4960    -4.5930 h1         1 DC3       0.029700
     37 H12         -0.8740    -3.2980    -3.8430 h1         1 DC3       0.029700
     38 H13          0.4430    -4.3340    -6.9890 h4         1 DC3       0.170000
     39 H14         -2.9330    -2.7880   -10.0200 ha         1 DC3       0.126000
     40 H15         -4.1810    -3.6350   -12.1020 hc         1 DC3       0.012700
     41 H16         -2.9720    -2.6430   -12.9300 hc         1 DC3       0.012700
     42 H17         -3.2010    -4.3330   -13.4000 hc         1 DC3       0.012700
     43 H18         -1.1650    -5.3760   -12.9180 ha         1 DC3       0.113000
     44 H19          0.5370    -6.0690   -11.2760 ha         1 DC3       0.108000
     45 H20          0.4980    -5.1470    -8.9920 ha         1 DC3       0.096000
     46 HAM3        -0.5360    -2.7470    -2.0790 hn         1 DC3       0.239467
@<TRIPOS>BOND
     1     1     2 1   
     2     2     3 ar  
     3     2     9 ar  
     4     3     4 ar  
     5     3    27 1   
     6     4     5 1   
     7     4     6 ar  
     8     6     7 1   
     9     6     8 ar  
    10     8     9 ar  
    11     8    28 1   
    12     9    10 1   
    13    10    11 1   
    14    10    29 1   
    15    10    30 1   
    16    11    12 1   
    17    11    13 1   
    18    11    31 1   
    19    12    32 1   
    20    12    33 1   
    21    12    46 1   
    22    13    14 1   
    23    13    34 1   
    24    13    35 1   
    25    14    15 1   
    26    14    36 1   
    27    14    37 1   
    28    15    16 1   
    29    15    17 1   
    30    16    19 2   
    31    16    38 1   
    32    17    18 2   
    33    18    19 1   
    34    19    20 1   
    35    20    21 ar  
    36    20    26 ar  
    37    21    22 ar  
    38    21    39 1   
    39    22    23 1   
    40    22    24 ar  
    41    23    40 1   
    42    23    41 1   
    43    23    42 1   
    44    24    25 ar  
    45    24    43 1   
    46    25    26 ar  
    47    25    44 1   
    48    26    45 1   
@<TRIPOS>SUBSTRUCTURE
     1 DC3         1 TEMP              0 ****  ****    0 ROOT
