@<TRIPOS>MOLECULE
DC4
   21    23     1     0     0
SMALL
bcc


@<TRIPOS>ATOM
      1 CAH        -0.0430    0.0000    0.0410 ca        1 DC4     -0.072000
      2 CAN         1.3430    0.0000    0.0600 cp        1 DC4     -0.073000
      3 CAM         2.3530   -0.0000    1.1040 cp        1 DC4     -0.084000
      4 CAF         2.3360   -0.0000    2.4910 ca        1 DC4     -0.074000
      5 CAC         3.5570   -0.0000    3.1710 ca        1 DC4     -0.151000
      6 CAB         4.7750   -0.0000    2.4870 ca        1 DC4     -0.103000
      7 CAE         4.8300   -0.0000    1.0890 ca        1 DC4     -0.129000
      8 CAK         3.6140   -0.0000    0.4230 ca        1 DC4      0.085100
      9 OAI         3.4510    0.0000   -0.9730 os        1 DC4     -0.199200
     10 CAL         2.0630    0.0000   -1.1790 ca        1 DC4      0.084100
     11 CAG         1.4340    0.0000   -2.4140 ca        1 DC4     -0.122000
     12 CAD         0.0360    0.0010   -2.4110 ca        1 DC4     -0.101000
     13 CAJ        -0.6810    0.0000   -1.2080 ca        1 DC4     -0.005600
     14 Cl1        -2.3820    0.0010   -1.2610 cl        1 DC4     -0.092400
     15 HAH        -0.6240    0.0000    0.9750 ha        1 DC4      0.155000
     16 HAF         1.3850   -0.0000    3.0420 ha        1 DC4      0.142000
     17 HAC         3.5580   -0.0000    4.2720 ha        1 DC4      0.137000
     18 HAB         5.7170   -0.0000    3.0570 ha        1 DC4      0.138000
     19 HAE         5.7830   -0.0000    0.5450 ha        1 DC4      0.154000
     20 HAG         2.0060    0.0010   -3.3510 ha        1 DC4      0.158000
     21 HAD        -0.5030    0.0010   -3.3710 ha        1 DC4      0.152000
@<TRIPOS>BOND
     1    1    2 ar  
     2    1   13 ar  
     3    1   15 1   
     4    2    3 1   
     5    2   10 ar  
     6    3    4 ar  
     7    3    8 ar  
     8    4    5 ar  
     9    4   16 1   
    10    5    6 ar  
    11    5   17 1   
    12    6    7 ar  
    13    6   18 1   
    14    7    8 ar  
    15    7   19 1   
    16    8    9 1   
    17    9   10 1   
    18   10   11 ar  
    19   11   12 ar  
    20   11   20 1   
    21   12   13 ar  
    22   12   21 1   
    23   13   14 1   
@<TRIPOS>SUBSTRUCTURE
     1 DC4         1 TEMP              0 ****  ****    0 ROOT
