@<TRIPOS>MOLECULE
molecule
   22    23     1     0     0
SMALL
bcc


@<TRIPOS>ATOM
      1 CA1          0.0000     0.0000     0.0000 cp         1 DC5      -0.052000
      2 CA6          1.3940     0.0000     0.0000 ca         1 DC5      -0.098000
      3 CA5          2.0810     0.0000     1.1970 ca         1 DC5      -0.131500
      4 CA4          1.3900     0.0010     2.3950 ca         1 DC5      -0.119000
      5 CA3          0.0060     0.0010     2.4010 ca         1 DC5      -0.131500
      6 CA2         -0.6920     0.0010     1.2100 ca         1 DC5      -0.098000
      7 CB1         -0.7450     0.0070    -1.2830 cp         1 DC5      -0.023000
      8 CB2         -0.6500     1.1000    -2.1420 ca         1 DC5       0.043400
      9 CB3         -1.3470     1.1000    -3.3350 ca         1 DC5      -0.122000
     10 CB4         -2.1360     0.0180    -3.6790 ca         1 DC5      -0.112000
     11 CB5         -2.2340    -1.0700    -2.8300 ca         1 DC5      -0.122000
     12 CB6         -1.5370    -1.0850    -1.6380 ca         1 DC5       0.043400
     13 Cl6         -1.6550    -2.4550    -0.5780 cl         1 DC5      -0.090400
     14 Cl1          0.3390     2.4600    -1.7120 cl         1 DC5      -0.090400
     15 HA2         -1.7750     0.0010     1.2160 ha         1 DC5       0.137000
     16 HA6          1.9370    -0.0010    -0.9380 ha         1 DC5       0.137000
     17 HA3         -0.5300     0.0020     3.3420 ha         1 DC5       0.131000
     18 HA4          1.9340     0.0010     3.3320 ha         1 DC5       0.129000
     19 HA5          3.1640    -0.0000     1.1980 ha         1 DC5       0.131000
     20 HB3         -1.2740     1.9490    -4.0040 ha         1 DC5       0.148000
     21 HB4         -2.6820     0.0230    -4.6150 ha         1 DC5       0.143000
     22 HB5         -2.8520    -1.9160    -3.1060 ha         1 DC5       0.148000
@<TRIPOS>BOND
     1     1     6 ar
     2     1     2 ar
     3     1     7 1
     4     6     5 ar
     5     5     4 ar
     6     4     3 ar
     7     3     2 ar
     8     7     8 ar
     9     7    12 ar
    10     8     9 ar
    11     8    14 1
    12     9    10 ar
    13    10    11 ar
    14    11    12 ar
    15    12    13 1
    16     6    15 1
    17     2    16 1
    18     5    17 1
    19     4    18 1
    20     3    19 1
    21     9    20 1
    22    10    21 1
    23    11    22 1
@<TRIPOS>SUBSTRUCTURE
     1 DC5         1 TEMP              0 ****  ****    0 ROOT
