@<TRIPOS>MOLECULE
DC8
   39    42     1     0     0
SMALL
bcc


@<TRIPOS>ATOM
      1 C4         -0.0090    0.1260    0.0360 ca        1 DC8      0.088100
      2 C6         -0.0420   -0.3180   -2.2770 c3        1 DC8      0.202400
      3 C8          1.3470    0.2940   -2.4540 c3        1 DC8     -0.084700
      4 C10         1.3150    1.7760   -2.7950 c3        1 DC8     -0.118400
      5 C15         2.2040    0.1450   -1.1870 c3        1 DC8     -0.011400
      6 C17         1.3940    0.0790    0.0660 ca        1 DC8     -0.101300
      7 C20        -0.7550   -0.9750   -4.5740 ca        1 DC8     -0.076000
      8 C21        -1.5410   -0.8270   -5.7110 ca        1 DC8     -0.186500
      9 C22        -2.5060    0.1950   -5.7440 ca        1 DC8      0.131100
     10 C24        -2.6790    1.0560   -4.6520 ca        1 DC8     -0.186500
     11 C1          1.2780   -0.0820    2.4770 ca        1 DC8      0.103100
     12 C2         -0.1230   -0.0120    2.4400 ca        1 DC8     -0.185000
     13 C3         -0.7700    0.0840    1.2140 ca        1 DC8     -0.107000
     14 O5         -0.7250    0.2550   -1.1440 os        1 DC8     -0.323900
     15 C11         2.5880    2.4020   -2.1630 c3        1 DC8      0.406600
     16 F12         3.5170    2.7810   -3.1140 f         1 DC8     -0.241800
     17 F13         2.3300    3.6090   -1.5440 f         1 DC8     -0.241800
     18 C14         3.1590    1.3400   -1.1790 c3        1 DC8     -0.120400
     19 C18         2.0380   -0.0390    1.3000 ca        1 DC8     -0.131000
     20 C19        -0.9140   -0.1160   -3.4780 ca        1 DC8     -0.129300
     21 O23        -3.2540    0.2930   -6.8940 oh        1 DC8     -0.496100
     22 C25        -1.8780    0.8940   -3.5230 ca        1 DC8     -0.076000
     23 O26         1.9840   -0.1970    3.6550 oh        1 DC8     -0.497100
     24 H6          0.0790   -1.4230   -2.0790 h1        1 DC8      0.058700
     25 H8          1.8500   -0.2620   -3.2930 hc        1 DC8      0.068700
     26 H101        1.3110    1.9430   -3.8990 hc        1 DC8      0.083700
     27 H102        0.4060    2.2620   -2.3570 hc        1 DC8      0.083700
     28 H15         2.8020   -0.8060   -1.2570 hc        1 DC8      0.069700
     29 H20        -0.0010   -1.7760   -4.5370 ha        1 DC8      0.143000
     30 H21        -1.4240   -1.4920   -6.5780 ha        1 DC8      0.145000
     31 H24        -3.4380    1.8500   -4.6840 ha        1 DC8      0.145000
     32 H2         -0.7060   -0.0390    3.3720 ha        1 DC8      0.138000
     33 H3         -1.8670    0.1340    1.1540 ha        1 DC8      0.153000
     34 H141        3.2550    1.7860   -0.1590 hc        1 DC8      0.079200
     35 H142        4.1750    1.0300   -1.5280 hc        1 DC8      0.079200
     36 H18         3.1340   -0.0930    1.3600 ha        1 DC8      0.152000
     37 HO23       -3.8770    1.0260   -6.7840 ho        1 DC8      0.421000
     38 H25        -2.0100    1.5620   -2.6560 ha        1 DC8      0.143000
     39 HO26        1.3470   -0.2020    4.3830 ho        1 DC8      0.419000
@<TRIPOS>BOND
     1    1    6 ar  
     2    1   13 ar  
     3    1   14 1   
     4    2    3 1   
     5    2   14 1   
     6    2   20 1   
     7    2   24 1   
     8    3    4 1   
     9    3    5 1   
    10    3   25 1   
    11    4   15 1   
    12    4   26 1   
    13    4   27 1   
    14    5    6 1   
    15    5   18 1   
    16    5   28 1   
    17    6   19 ar  
    18    7    8 ar  
    19    7   20 ar  
    20    7   29 1   
    21    8    9 ar  
    22    8   30 1   
    23    9   10 ar  
    24    9   21 1   
    25   10   22 ar  
    26   10   31 1   
    27   11   12 ar  
    28   11   19 ar  
    29   11   23 1   
    30   12   13 ar  
    31   12   32 1   
    32   13   33 1   
    33   15   16 1   
    34   15   17 1   
    35   15   18 1   
    36   18   34 1   
    37   18   35 1   
    38   19   36 1   
    39   20   22 ar  
    40   21   37 1   
    41   22   38 1   
    42   23   39 1   
@<TRIPOS>SUBSTRUCTURE
     1 DC8         1 TEMP              0 ****  ****    0 ROOT
