@<TRIPOS>MOLECULE
molecule
   39    42     1     0     0
SMALL
bcc


@<TRIPOS>ATOM
      1 C4           0.0000     0.0000     0.0000 ca         1 DC8       0.139100
      2 C6          -0.0460    -0.4670    -2.3320 c3         1 DC8       0.207400
      3 C8           1.2800     0.2690    -2.4920 c3         1 DC8      -0.100700
      4 C10          1.0510     1.7910    -2.4790 c3         1 DC8      -0.122400
      5 C15          2.1850    -0.0010    -1.2760 c3         1 DC8      -0.018400
      6 C17          1.3830     0.0000     0.0000 ca         1 DC8      -0.145300
      7 C20         -0.9990    -1.1620    -4.5380 ca         1 DC8      -0.096500
      8 C21         -1.7920    -0.9300    -5.6460 ca         1 DC8      -0.154000
      9 C22         -2.5000     0.2570    -5.7540 ca         1 DC8       0.114100
     10 C24         -2.4100     1.2100    -4.7490 ca         1 DC8      -0.154000
     11 C1           1.3740    -0.0020     2.4050 ca         1 DC8       0.078100
     12 C2          -0.0130    -0.0070     2.4020 ca         1 DC8      -0.120000
     13 C3          -0.6960    -0.0020     1.2030 ca         1 DC8      -0.137000
     14 O5          -0.7100     0.0070    -1.1600 os         1 DC8      -0.322900
     15 C11          2.2160     2.4030    -1.6810 c3         1 DC8       0.396600
     16 F12          2.9340     3.2930    -2.4880 f          1 DC8      -0.233300
     17 F13          1.7280     3.0660    -0.5510 f          1 DC8      -0.233300
     18 C14          3.1210     1.2350    -1.2580 c3         1 DC8      -0.118400
     19 C18          2.0670     0.0000     1.2060 ca         1 DC8      -0.117000
     20 C19         -0.9110    -0.2110    -3.5380 ca         1 DC8      -0.101300
     21 O23         -3.2800     0.4880    -6.8430 oh         1 DC8      -0.521100
     22 C25         -1.6160     0.9740    -3.6440 ca         1 DC8      -0.096500
     23 O26          2.0530    -0.0050     3.5820 oh         1 DC8      -0.518100
     24 H6           0.1420    -1.5300    -2.2340 h1         1 DC8       0.058700
     25 H8           1.7740    -0.0320    -3.4070 hc         1 DC8       0.074700
     26 H101         0.1170     2.0090    -1.9740 hc         1 DC8       0.083700
     27 H102         1.0760     2.1660    -3.4950 hc         1 DC8       0.083700
     28 H15          2.7460    -0.9210    -1.3940 hc         1 DC8       0.074700
     29 H20         -0.4460    -2.0890    -4.4540 ha         1 DC8       0.140500
     30 H21         -1.8610    -1.6750    -6.4300 ha         1 DC8       0.144000
     31 H24         -2.9620     2.1380    -4.8310 ha         1 DC8       0.144000
     32 H2          -0.5580    -0.0080     3.3380 ha         1 DC8       0.146000
     33 H3          -1.7800    -0.0060     1.2000 ha         1 DC8       0.149000
     34 H141         3.4880     1.4020    -0.2530 hc         1 DC8       0.077700
     35 H142         3.9130     1.1040    -1.9850 hc         1 DC8       0.077700
     36 H18          3.1510     0.0040     1.2100 ha         1 DC8       0.142000
     37 HO23        -2.7700     0.9160    -7.5100 ho         1 DC8       0.421000
     38 H25         -1.5450     1.7170    -2.8590 ha         1 DC8       0.140500
     39 HO26         2.1950    -0.8950     3.8610 ho         1 DC8       0.415000
@<TRIPOS>BOND
     1     1    13 ar
     2     1    14 1
     3     1     6 ar
     4     2    14 1
     5     2    20 1
     6     2     3 1
     7     2    24 1
     8     3     5 1
     9     3     4 1
    10     3    25 1
    11     4    15 1
    12     4    26 1
    13     4    27 1
    14     5     6 1
    15     5    18 1
    16     5    28 1
    17     6    19 ar
    18     7    20 ar
    19     7     8 ar
    20     7    29 1
    21     8     9 ar
    22     8    30 1
    23     9    10 ar
    24     9    21 1
    25    10    22 ar
    26    10    31 1
    27    11    12 ar
    28    11    23 1
    29    11    19 ar
    30    12    13 ar
    31    12    32 1
    32    13    33 1
    33    15    18 1
    34    15    17 1
    35    15    16 1
    36    18    34 1
    37    18    35 1
    38    19    36 1
    39    20    22 ar
    40    21    37 1
    41    22    38 1
    42    23    39 1
@<TRIPOS>SUBSTRUCTURE
     1 DC8         1 TEMP              0 ****  ****    0 ROOT
