@<TRIPOS>MOLECULE
DCD
   19    18     1     0     0
SMALL
bcc


@<TRIPOS>ATOM
      1 C5           0.0000     0.0000     0.0000 c3         1 DCD      -0.011100
      2 C3           1.5290     0.0000     0.0000 c3         1 DCD      -0.014000
      3 N1           2.0180     0.0000     1.3810 n          1 DCD       0.103200
      4 C1           2.2420     1.1660     2.0160 cs         1 DCD       0.315000
      5 S2           1.8350     2.6460     1.2580 s          1 DCD      -0.658400
      6 S1           2.9560     1.1680     3.6260 sh         1 DCD      -0.265400
      7 C2           2.2650    -1.2690     2.0690 c3         1 DCD      -0.014000
      8 C4           3.7390    -1.6470     1.9310 c3         1 DCD      -0.011100
      9 H5C1        -0.3610    -1.0210     0.0210 hc         1 DCD       0.017700
     10 H5C2        -0.3610     0.5290     0.8740 hc         1 DCD       0.017700
     11 H5C3        -0.3610     0.4920    -0.8950 hc         1 DCD       0.017700
     12 H3C1         1.8900    -0.8840    -0.5110 h1         1 DCD       0.052450
     13 H3C2         1.8900     0.8840    -0.5110 h1         1 DCD       0.052450
     14 HS           2.7810     2.3590     4.1860 hs         1 DCD       0.239800
     15 H2C1         1.6510    -2.0440     1.6270 h1         1 DCD       0.052450
     16 H2C2         2.0150    -1.1650     3.1180 h1         1 DCD       0.052450
     17 H4C1         4.0730    -2.1360     2.8380 hc         1 DCD       0.017700
     18 H4C2         4.3280    -0.7530     1.7660 hc         1 DCD       0.017700
     19 H4C3         3.8630    -2.3200     1.0910 hc         1 DCD       0.017700
@<TRIPOS>BOND
     1     1     2 1   
     2     1     9 1   
     3     1    10 1   
     4     1    11 1   
     5     2     3 1   
     6     2    12 1   
     7     2    13 1   
     8     3     4 1   
     9     3     7 1   
    10     4     5 2   
    11     4     6 1   
    12     6    14 1   
    13     7     8 1   
    14     7    15 1   
    15     7    16 1   
    16     8    17 1   
    17     8    18 1   
    18     8    19 1   
@<TRIPOS>SUBSTRUCTURE
     1 DCD         1 TEMP              0 ****  ****    0 ROOT
