@<TRIPOS>MOLECULE
DCE
    8     7     1     0     0
SMALL
bcc


@<TRIPOS>ATOM
      1 Cl1         0.0520    0.0000   -0.0150 cl        1 DCE     -0.181400
      2 C1          1.8060    0.0000    0.0110 c3        1 DCE      0.022000
      3 C2          2.3100   -0.0000    1.4310 c3        1 DCE      0.022000
      4 Cl2         4.0640   -0.0000    1.4570 cl        1 DCE     -0.181400
      5 H11         2.1380   -0.9130   -0.5410 h1        1 DCE      0.079700
      6 H12         2.1380    0.9130   -0.5410 h1        1 DCE      0.079700
      7 H21         1.9780   -0.9130    1.9830 h1        1 DCE      0.079700
      8 H22         1.9780    0.9130    1.9830 h1        1 DCE      0.079700
@<TRIPOS>BOND
     1    1    2 1   
     2    2    3 1   
     3    2    5 1   
     4    2    6 1   
     5    3    4 1   
     6    3    7 1   
     7    3    8 1   
@<TRIPOS>SUBSTRUCTURE
     1 DCE         1 TEMP              0 ****  ****    0 ROOT
