@<TRIPOS>MOLECULE
molecule
    8     7     1     0     0
SMALL
bcc


@<TRIPOS>ATOM
      1 Cl1          0.0000     0.0000     0.0000 cl         1 DCE      -0.192400
      2 C1           1.8030     0.0000     0.0000 c3         1 DCE       0.036000
      3 C2           2.3130     0.0000     1.4420 c3         1 DCE       0.036000
      4 Cl2          4.1160    -0.0000     1.4420 cl         1 DCE      -0.192400
      5 H11          2.1640     0.8850    -0.5110 h1         1 DCE       0.077700
      6 H12          2.1640    -0.8850    -0.5110 h1         1 DCE       0.077700
      7 H21          1.9520     0.8850     1.9530 h1         1 DCE       0.077700
      8 H22          1.9520    -0.8850     1.9530 h1         1 DCE       0.077700
@<TRIPOS>BOND
     1     1     2 1
     2     2     3 1
     3     2     5 1
     4     2     6 1
     5     3     4 1
     6     3     7 1
     7     3     8 1
@<TRIPOS>SUBSTRUCTURE
     1 DCE         1 TEMP              0 ****  ****    0 ROOT
