@<TRIPOS>MOLECULE
molecule
   35    37     1     0     0
SMALL
bcc


@<TRIPOS>ATOM
      1 N1           0.0000     0.0000     0.0000 nc         1 DCF      -0.684000
      2 C2           1.3020     0.0000     0.0000 cd         1 DCF       0.426400
      3 N3           1.7370     0.0000     1.2840 na         1 DCF      -0.198900
      4 C9          -0.4550    -0.0020     1.2680 cc         1 DCF       0.272600
      5 C10          0.6140     0.0010     2.0960 cd         1 DCF       0.064800
      6 N4           0.6850     0.0190     3.4480 nf         1 DCF      -0.692100
      7 C5          -0.2550     0.0590     4.3080 c2         1 DCF       0.692100
      8 N6          -1.5780     0.0610     4.0470 nu         1 DCF      -0.924200
      9 C7          -2.1890     0.7280     2.9140 c3         1 DCF       0.217800
     10 C8          -1.9160    -0.0170     1.6230 c3         1 DCF       0.115800
     11 O8          -2.6590     0.5970     0.5680 oh         1 DCF      -0.578800
     12 C2S          3.6300    -1.4580     1.8760 c3         1 DCF      -0.151400
     13 C3S          4.8490    -1.5410     0.9210 c3         1 DCF       0.109100
     14 O3S          5.9120    -2.2880     1.5150 oh         1 DCF      -0.593800
     15 C4S          5.2350    -0.0500     0.7600 c3         1 DCF       0.141100
     16 O4S          3.9620     0.6320     0.7460 os         1 DCF      -0.398600
     17 C1S          3.1320    -0.0090     1.7290 c3         1 DCF       0.258800
     18 H2           1.9320     0.0010    -0.8810 h5         1 DCF       0.072100
     19 H5           0.0380     0.0950     5.3500 h5         1 DCF       0.035800
     20 HN6         -2.1790    -0.4320     4.6780 hn         1 DCF       0.429800
     21 H71         -3.2600     0.7350     3.0720 h1         1 DCF       0.066200
     22 H72         -1.7420     1.7110     2.8300 h1         1 DCF       0.066200
     23 H8          -2.2380    -1.0450     1.7370 h1         1 DCF       0.038700
     24 HO8         -3.2810    -0.0210     0.2220 ho         1 DCF       0.402000
     25 H2S1         3.9370    -1.6500     2.8970 hc         1 DCF       0.077700
     26 H2S2         2.8610    -2.1550     1.5670 hc         1 DCF       0.077700
     27 H3S          4.5590    -1.9650    -0.0320 h1         1 DCF       0.049700
     28 HO3          5.9150    -3.1630     1.1660 ho         1 DCF       0.409000
     29 HO5          6.7970     1.6950    -1.4800 ho         1 DCF       0.404000
     30 H4S          5.8310     0.2800     1.6030 h1         1 DCF       0.081700
     31 H1S          3.2240     0.5070     2.6770 h2         1 DCF       0.096700
     32 C5S          5.9820     0.1740    -0.5550 c3         1 DCF       0.149400
     33 H5S1         5.3620    -0.1510    -1.3820 h1         1 DCF       0.031700
     34 O5S          6.2810     1.5650    -0.7020 oh         1 DCF      -0.595800
     35 H5S2         6.9040    -0.3940    -0.5490 h1         1 DCF       0.031700
@<TRIPOS>BOND
     1     1     2 2
     2     1     4 1
     3     2     3 1
     4     2    18 1
     5     3     5 1
     6     3    17 1
     7     4     5 2
     8     4    10 1
     9     5     6 1
    10     6     7 2
    11     7     8 1
    12     7    19 1
    13     8     9 1
    14     8    20 1
    15     9    10 1
    16     9    21 1
    17     9    22 1
    18    10    11 1
    19    10    23 1
    20    11    24 1
    21    12    13 1
    22    12    17 1
    23    12    25 1
    24    12    26 1
    25    13    14 1
    26    13    15 1
    27    13    27 1
    28    14    28 1
    29    34    32 1
    30    34    29 1
    31    32    15 1
    32    32    33 1
    33    32    35 1
    34    15    16 1
    35    15    30 1
    36    16    17 1
    37    17    31 1
@<TRIPOS>SUBSTRUCTURE
     1 DCF         1 TEMP              0 ****  ****    0 ROOT
