@<TRIPOS>MOLECULE
DCH
   65    68     1     0     0
SMALL
bcc


@<TRIPOS>ATOM
      1 CZ           0.0000     0.0000     0.0000 c3         1 DCH       0.025000
      2 NZ1          1.4470     0.0000     0.0000 nz         1 DCH       0.053900
      3 NZ2         -0.5130     0.0000     1.3530 nz         1 DCH       0.053900
      4 C11         -0.5660    -1.1170    -0.8110 ca         1 DCH      -0.306300
      5 C12         -0.3190    -2.4400    -0.4440 ca         1 DCH      -0.044000
      6 C13         -0.8470    -3.5020    -1.1970 ca         1 DCH      -0.027000
      7 C14         -0.6090    -4.8410    -0.8430 ca         1 DCH      -0.093000
      8 C15         -1.1400    -5.8830    -1.6020 ca         1 DCH      -0.014300
      9 C16         -1.9160    -5.6030    -2.7240 ca         1 DCH      -0.009000
     10 C17         -2.1630    -4.2800    -3.0900 ca         1 DCH      -0.079000
     11 C18         -1.6360    -3.2180    -2.3370 ca         1 DCH      -0.002000
     12 C19         -1.8740    -1.8800    -2.6910 ca         1 DCH       0.011000
     13 C1A         -1.3420    -0.8370    -1.9320 ca         1 DCH      -0.099000
     14 CA1         -0.8770    -7.2980    -1.2120 c3         1 DCH       0.015900
     15 CA2          0.4000    -7.9040    -1.8550 c3         1 DCH      -0.041400
     16 CA3          0.5270    -9.3850    -1.5050 c          1 DCH       0.698100
     17 OA3          1.4860    -9.9040    -0.9490 o          1 DCH      -0.520000
     18 OA4         -0.6110   -10.0400    -1.8860 os         1 DCH      -0.424900
     19 CA5         -0.6470   -11.4410    -1.5940 c3         1 DCH       0.215400
     20 CA6         -1.9630   -12.0120    -2.0760 c3         1 DCH      -0.005100
     21 C21          1.6620    -7.1410    -1.4990 ca         1 DCH      -0.122300
     22 C22          2.4110    -6.5720    -2.5120 ca         1 DCH      -0.050000
     23 C23          3.5720    -5.8710    -2.1860 ca         1 DCH      -0.146500
     24 C24          3.9630    -5.7510    -0.8520 ca         1 DCH       0.118100
     25 C25          3.1920    -6.3330     0.1560 ca         1 DCH      -0.146500
     26 C26          2.0310    -7.0350    -0.1710 ca         1 DCH      -0.050000
     27 OB           5.0960    -5.0690    -0.5330 os         1 DCH      -0.291900
     28 C31          5.1530    -3.6980    -0.9070 c3         1 DCH       0.149100
     29 C32          6.3780    -3.4450    -1.7820 c3         1 DCH       0.122800
     30 N33          7.1400    -2.4030    -1.0900 n7         1 DCH      -0.547200
     31 C34          6.8590    -2.5760     0.3310 c3         1 DCH       0.152800
     32 C35          5.3650    -2.8490     0.3380 c3         1 DCH      -0.085400
     33 HZ          -0.3200     0.9250    -0.4640 hx         1 DCH       0.134700
     34 HZ11         1.7820     0.8890     0.3160 hn         1 DCH       0.253633
     35 HZ12         1.7810    -0.7180     0.6120 hn         1 DCH       0.253633
     36 HZ21        -1.4970    -0.1800     1.3370 hn         1 DCH       0.253633
     37 HZ22        -0.0520    -0.7110     1.8850 hn         1 DCH       0.253633
     38 H12          0.2810    -2.6500     0.4320 ha         1 DCH       0.086000
     39 H14         -0.0060    -5.0650     0.0280 ha         1 DCH       0.126000
     40 H16         -2.3290    -6.4140    -3.3120 ha         1 DCH       0.140000
     41 H17         -2.7680    -4.0700    -3.9640 ha         1 DCH       0.136000
     42 H19         -2.4770    -1.6550    -3.5630 ha         1 DCH       0.142000
     43 H1A         -1.5320     0.1910    -2.2150 ha         1 DCH       0.123000
     44 HA11        -0.7760    -7.3450    -0.1350 hc         1 DCH       0.045700
     45 HA12        -1.7290    -7.9000    -1.5060 hc         1 DCH       0.045700
     46 HA2          0.2790    -7.8380    -2.9290 hc         1 DCH       0.047700
     47 HA51         0.1710   -11.9380    -2.1000 h1         1 DCH       0.015200
     48 HA52        -0.5570   -11.5900    -0.5250 h1         1 DCH       0.015200
     49 HA61        -2.7690   -11.6370    -1.4560 hc         1 DCH       0.015700
     50 HA62        -2.1310   -11.7160    -3.1040 hc         1 DCH       0.015700
     51 HA63        -1.9320   -13.0930    -2.0110 hc         1 DCH       0.015700
     52 H22          2.0130    -6.5230    -3.5180 ha         1 DCH       0.111000
     53 H23          4.1900    -5.4520    -2.9710 ha         1 DCH       0.123000
     54 H25          3.5160    -6.2740     1.1880 ha         1 DCH       0.123000
     55 H26          1.3420    -7.3360     0.6080 ha         1 DCH       0.111000
     56 H31          4.2490    -3.3980    -1.4230 h1         1 DCH      -0.012300
     57 H321         6.9710    -4.3480    -1.8650 h1         1 DCH       0.043700
     58 H322         6.0730    -3.0980    -2.7610 h1         1 DCH       0.043700
     59 H33          6.8190    -1.5020    -1.3870 hn         1 DCH       0.236800
     60 H341         7.0850    -1.6690     0.8790 h1         1 DCH       0.040200
     61 H342         7.4050    -3.4220     0.7290 h1         1 DCH       0.040200
     62 H351         5.0850    -3.4010     1.2270 hc         1 DCH       0.003200
     63 H352         4.8090    -1.9220     0.2650 hc         1 DCH       0.003200
     64 HZ13         1.7810    -0.1730    -0.9270 hn         1 DCH       0.253633
     65 HZ23        -0.3320     0.8880     1.7780 hn         1 DCH       0.253633
@<TRIPOS>BOND
     1     1     2 1   
     2     1     3 1   
     3     1     4 1   
     4     1    33 1   
     5     2    34 1   
     6     2    35 1   
     7     2    64 1   
     8     3    36 1   
     9     3    37 1   
    10     3    65 1   
    11     4     5 ar  
    12     4    13 ar  
    13     5     6 ar  
    14     5    38 1   
    15     6     7 ar  
    16     6    11 ar  
    17     7     8 ar  
    18     7    39 1   
    19     8     9 ar  
    20     8    14 1   
    21     9    10 ar  
    22     9    40 1   
    23    10    11 ar  
    24    10    41 1   
    25    11    12 ar  
    26    12    13 ar  
    27    12    42 1   
    28    13    43 1   
    29    14    15 1   
    30    14    44 1   
    31    14    45 1   
    32    15    16 1   
    33    15    21 1   
    34    15    46 1   
    35    16    17 2   
    36    16    18 1   
    37    18    19 1   
    38    19    20 1   
    39    19    47 1   
    40    19    48 1   
    41    20    49 1   
    42    20    50 1   
    43    20    51 1   
    44    21    22 ar  
    45    21    26 ar  
    46    22    23 ar  
    47    22    52 1   
    48    23    24 ar  
    49    23    53 1   
    50    24    25 ar  
    51    24    27 1   
    52    25    26 ar  
    53    25    54 1   
    54    26    55 1   
    55    27    28 1   
    56    28    29 1   
    57    28    32 1   
    58    28    56 1   
    59    29    30 1   
    60    29    57 1   
    61    29    58 1   
    62    30    31 1   
    63    30    59 1   
    64    31    32 1   
    65    31    60 1   
    66    31    61 1   
    67    32    62 1   
    68    32    63 1   
@<TRIPOS>SUBSTRUCTURE
     1 DCH         1 TEMP              0 ****  ****    0 ROOT
