@<TRIPOS>MOLECULE
molecule
   40    41     1     0     0
SMALL
bcc


@<TRIPOS>ATOM
      1 O4           0.0000     0.0000     0.0000 o          1 DCJ      -0.815050
      2 C7           1.2150     0.0000     0.0000 c          1 DCJ       0.780100
      3 O3           1.8880     0.0000     1.1660 o          1 DCJ      -0.815050
      4 C6           1.9550    -0.0070    -1.2830 ca         1 DCJ       0.411800
      5 C5           1.2500    -0.0120    -2.4860 ca         1 DCJ      -0.240800
      6 N1           3.2800    -0.0000    -1.2740 nb         1 DCJ      -0.558000
      7 C2           3.9830    -0.0060    -2.3960 ca         1 DCJ       0.411800
      8 C1           5.4630     0.0000    -2.3330 c          1 DCJ       0.780100
      9 O2           6.0850     0.0120    -1.1390 o          1 DCJ      -0.815050
     10 O1           6.1150    -0.0040    -3.3570 o          1 DCJ      -0.815050
     11 C3           3.3460    -0.0170    -3.6370 ca         1 DCJ      -0.240800
     12 C4           1.9550    -0.0180    -3.6870 ca         1 DCJ      -0.090200
     13 N2           1.2800    -0.0240    -4.9140 na         1 DCJ       0.250300
     14 C8           1.8430    -0.0300    -6.1560 cc         1 DCJ      -0.205600
     15 N3          -0.1090    -0.0330    -5.1110 nc         1 DCJ      -0.136800
     16 N4          -0.3310    -0.0360    -6.3800 nd         1 DCJ      -0.377000
     17 C9           0.8260    -0.0350    -7.0440 cd         1 DCJ       0.113600
     18 C10          0.9750    -0.0420    -8.5440 c3         1 DCJ       0.115500
     19 N5           0.9040    -1.4240    -9.0360 n4         1 DCJ      -0.568800
     20 C13          1.9850    -2.2150    -8.4330 c3         1 DCJ       0.089100
     21 C14         -0.3930    -2.0080    -8.6690 c3         1 DCJ       0.089100
     22 C11          1.0490    -1.4310   -10.4980 c3         1 DCJ       0.104800
     23 C12          1.0980    -2.8760   -10.9980 c3         1 DCJ       0.113400
     24 O5          -0.1730    -3.4960   -10.7910 oh         1 DCJ      -0.613800
     25 H5           0.1670    -0.0120    -2.4860 ha         1 DCJ       0.147000
     26 H3           3.9270    -0.0220    -4.5510 ha         1 DCJ       0.147000
     27 H8           2.9020    -0.0280    -6.3860 h4         1 DCJ       0.197000
     28 H101         0.1780     0.5410    -8.9890 hx         1 DCJ       0.094200
     29 H102         1.9320     0.3890    -8.8140 hx         1 DCJ       0.094200
     30 H131         2.9170    -2.0000    -8.9420 hx         1 DCJ       0.102033
     31 H132         1.7570    -3.2700    -8.5280 hx         1 DCJ       0.102033
     32 H133         2.0790    -1.9590    -7.3840 hx         1 DCJ       0.102033
     33 H141        -0.3310    -3.0890    -8.7220 hx         1 DCJ       0.102033
     34 H142        -0.6520    -1.7100    -7.6600 hx         1 DCJ       0.102033
     35 H143        -1.1540    -1.6570    -9.3560 hx         1 DCJ       0.102033
     36 H111         0.2050    -0.9220   -10.9470 hx         1 DCJ       0.097700
     37 H112         1.9650    -0.9230   -10.7730 hx         1 DCJ       0.097700
     38 H121         1.3350    -2.8840   -12.0550 h1         1 DCJ       0.058200
     39 H122         1.8590    -3.4220   -10.4540 h1         1 DCJ       0.058200
     40 HO5         -0.3330    -4.1220   -11.4780 ho         1 DCJ       0.427000
@<TRIPOS>BOND
     1     1     2 1
     2     2     3 1
     3     2     4 1
     4     4     5 ar
     5     4     6 ar
     6     5    12 ar
     7     6     7 ar
     8     7     8 1
     9     7    11 ar
    10     8     9 1
    11     8    10 1
    12    11    12 ar
    13    12    13 1
    14    13    14 1
    15    13    15 1
    16    14    17 2
    17    15    16 2
    18    16    17 1
    19    17    18 1
    20    18    19 1
    21    19    20 1
    22    19    21 1
    23    19    22 1
    24    22    23 1
    25    23    24 1
    26     5    25 1
    27    11    26 1
    28    14    27 1
    29    18    28 1
    30    18    29 1
    31    20    30 1
    32    20    31 1
    33    20    32 1
    34    21    33 1
    35    21    34 1
    36    21    35 1
    37    22    36 1
    38    22    37 1
    39    24    40 1
    40    23    38 1
    41    23    39 1
@<TRIPOS>SUBSTRUCTURE
     1 DCJ         1 TEMP              0 ****  ****    0 ROOT
