@<TRIPOS>MOLECULE
DCK
   26    25     1     0     0
SMALL
bcc


@<TRIPOS>ATOM
      1 C01          0.0000     0.0000     0.0000 c3         1 DCK       0.012433
      2 N02          1.4690     0.0000     0.0000 n4         1 DCK       0.058200
      3 C03          1.9590     0.0000     1.3850 c3         1 DCK       0.012433
      4 C04          1.9590    -1.2000    -0.6940 c3         1 DCK       0.012433
      5 C05          1.9590     1.1990    -0.6930 c3         1 DCK      -0.034200
      6 C06          1.3390     2.4450    -0.0560 c3         1 DCK       0.192100
      7 O07          1.8290     2.5900     1.2780 oh         1 DCK      -0.654800
      8 C08          1.7190     3.6800    -0.8760 c3         1 DCK      -0.164400
      9 C09          1.0090     4.8880    -0.3210 c          1 DCK       0.984600
     10 O10          0.2760     4.7730     0.6320 o          1 DCK      -0.875300
     11 O11          1.1920     6.0920    -0.8870 o          1 DCK      -0.875300
     12 H01         -0.3610     0.3570    -0.9570 hx         1 DCK       0.069589
     13 H01A        -0.3610     0.6500     0.7880 hx         1 DCK       0.069589
     14 H01B        -0.3610    -1.0070     0.1690 hx         1 DCK       0.069589
     15 H03          2.0260    -1.0200     1.7440 hx         1 DCK       0.069589
     16 H03A         1.2740     0.5590     2.0100 hx         1 DCK       0.069589
     17 H03B         2.9390     0.4600     1.4210 hx         1 DCK       0.069589
     18 H04          1.5750    -1.2130    -1.7070 hx         1 DCK       0.069589
     19 H04A         1.6200    -2.0850    -0.1680 hx         1 DCK       0.069589
     20 H04B         3.0420    -1.1870    -0.7170 hx         1 DCK       0.069589
     21 H05          1.6810     1.1510    -1.7390 hx         1 DCK       0.076200
     22 H05A         3.0380     1.2490    -0.6080 hx         1 DCK       0.076200
     23 H06          0.2600     2.3420    -0.0360 h1         1 DCK       0.028700
     24 HO07         1.2840     3.2000     1.7490 ho         1 DCK       0.468000
     25 H08          1.4260     3.5320    -1.9080 hc         1 DCK       0.027200
     26 H08A         2.7890     3.8340    -0.8220 hc         1 DCK       0.027200
@<TRIPOS>BOND
     1     1     2 1   
     2     1    12 1   
     3     1    13 1   
     4     1    14 1   
     5     2     3 1   
     6     2     4 1   
     7     2     5 1   
     8     3    15 1   
     9     3    16 1   
    10     3    17 1   
    11     4    18 1   
    12     4    19 1   
    13     4    20 1   
    14     5     6 1   
    15     5    21 1   
    16     5    22 1   
    17     6     7 1   
    18     6     8 1   
    19     6    23 1   
    20     7    24 1   
    21     8     9 1   
    22     8    25 1   
    23     8    26 1   
    24     9    10 1   
    25     9    11 1   
@<TRIPOS>SUBSTRUCTURE
     1 DCK         1 TEMP              0 ****  ****    0 ROOT
