@<TRIPOS>MOLECULE
molecule
   26    25     1     0     0
SMALL
bcc


@<TRIPOS>ATOM
      1 C01          0.0000     0.0000     0.0000 c3         1 DCK       0.099433
      2 N02          1.4690     0.0000     0.0000 n4         1 DCK      -0.572800
      3 C03          1.9590     0.0000     1.3850 c3         1 DCK       0.099433
      4 C04          1.9590    -1.2000    -0.6940 c3         1 DCK       0.099433
      5 C05          1.9590     1.1990    -0.6930 c3         1 DCK       0.097800
      6 C06          1.3390     2.4450    -0.0560 c3         1 DCK       0.145100
      7 O07          1.8290     2.5900     1.2780 oh         1 DCK      -0.657800
      8 C08          1.7190     3.6800    -0.8760 c3         1 DCK      -0.212400
      9 C09          1.0090     4.8880    -0.3210 c          1 DCK       0.895600
     10 O10          0.2760     4.7730     0.6320 o          1 DCK      -0.826800
     11 O11          1.1920     6.0920    -0.8870 o          1 DCK      -0.826800
     12 H01         -0.3610     0.3570    -0.9570 hx         1 DCK       0.093033
     13 H01A        -0.3610     0.6500     0.7880 hx         1 DCK       0.093033
     14 H01B        -0.3610    -1.0070     0.1690 hx         1 DCK       0.093033
     15 H03          2.0260    -1.0200     1.7440 hx         1 DCK       0.093033
     16 H03A         1.2740     0.5590     2.0100 hx         1 DCK       0.093033
     17 H03B         2.9390     0.4600     1.4210 hx         1 DCK       0.093033
     18 H04          1.5750    -1.2130    -1.7070 hx         1 DCK       0.093033
     19 H04A         1.6200    -2.0850    -0.1680 hx         1 DCK       0.093033
     20 H04B         3.0420    -1.1870    -0.7170 hx         1 DCK       0.093033
     21 H05          1.6810     1.1510    -1.7390 hx         1 DCK       0.097700
     22 H05A         3.0380     1.2490    -0.6080 hx         1 DCK       0.097700
     23 H06          0.2600     2.3420    -0.0360 h1         1 DCK       0.052700
     24 HO07         1.2840     3.2000     1.7490 ho         1 DCK       0.470000
     25 H08          1.4260     3.5320    -1.9080 hc         1 DCK       0.052700
     26 H08A         2.7890     3.8340    -0.8220 hc         1 DCK       0.052700
@<TRIPOS>BOND
     1     1     2 1
     2     2     3 1
     3     2     4 1
     4     2     5 1
     5     5     6 1
     6     6     7 1
     7     6     8 1
     8     8     9 1
     9     9    10 1
    10     9    11 1
    11     1    12 1
    12     1    13 1
    13     1    14 1
    14     3    15 1
    15     3    16 1
    16     3    17 1
    17     4    18 1
    18     4    19 1
    19     4    20 1
    20     5    21 1
    21     5    22 1
    22     6    23 1
    23     7    24 1
    24     8    25 1
    25     8    26 1
@<TRIPOS>SUBSTRUCTURE
     1 DCK         1 TEMP              0 ****  ****    0 ROOT
