@<TRIPOS>MOLECULE
molecule
   33    34     1     0     0
SMALL
bcc


@<TRIPOS>ATOM
      1 N1           0.0000     0.0000     0.0000 n          1 DCM      -0.341000
      2 C2           1.3440     0.0000     0.0000 c          1 DCM       0.838900
      3 N3           2.0320     0.0000     1.1410 nc         1 DCM      -0.714100
      4 C4           1.4050     0.0000     2.3090 cd         1 DCM       0.377500
      5 C5          -0.0040    -0.0040     2.3430 cd         1 DCM      -0.384600
      6 C6          -0.6880     0.0010     1.1760 cc         1 DCM       0.039600
      7 O2           1.9450    -0.0010    -1.0620 o          1 DCM      -0.588500
      8 N4           2.1260    -0.0010     3.4820 nz         1 DCM      -0.691600
      9 C1'         -0.7280    -0.0000    -1.2710 c3         1 DCM       0.298500
     10 C2'         -0.3550     1.2510    -2.0900 c3         1 DCM      -0.150400
     11 C3'          0.2130     0.6820    -3.4110 c3         1 DCM       0.114100
     12 C4'         -0.3860    -0.7460    -3.4350 c3         1 DCM       0.143100
     13 O4'         -0.3550    -1.1500    -2.0480 os         1 DCM      -0.365600
     14 O3'         -0.2420     1.4450    -4.5310 oh         1 DCM      -0.600800
     15 C5'          0.4750    -1.6790    -4.2900 c3         1 DCM       0.160400
     16 O5'         -0.0990    -2.9860    -4.2950 os         1 DCM      -0.530200
     17 P            0.8530    -3.9080    -5.2090 p5         1 DCM       1.163900
     18 O1P          0.2630    -5.4060    -5.2580 o          1 DCM      -0.729500
     19 O2P          0.9140    -3.3060    -6.7000 o          1 DCM      -0.729500
     20 O3P          2.2150    -3.9350    -4.6310 o          1 DCM      -0.729500
     21 H5          -0.5310    -0.0040     3.2900 ha         1 DCM       0.121000
     22 H6          -1.7720    -0.0010     1.1760 h4         1 DCM       0.160000
     23 HN41         3.1040     0.0060     3.2720 hn         1 DCM       0.431467
     24 HN42         1.9030    -0.8210     4.0100 hn         1 DCM       0.431467
     25 H1'         -1.7960    -0.0130    -1.0880 h2         1 DCM       0.053700
     26 H2'1         0.4010     1.8290    -1.5720 hc         1 DCM       0.056200
     27 H2'2        -1.2350     1.8520    -2.2840 hc         1 DCM       0.056200
     28 H3'          1.2950     0.6430    -3.3780 h1         1 DCM       0.083700
     29 H4'         -1.4060    -0.7220    -3.7990 h1         1 DCM       0.062700
     30 HO3'         0.4370     2.0400    -4.8030 ho         1 DCM       0.398000
     31 H5'1         0.5190    -1.3000    -5.3040 h1         1 DCM       0.064700
     32 H5'2         1.4760    -1.7250    -3.8780 h1         1 DCM       0.064700
     33 H43          1.8890     0.8100     4.0190 hn         1 DCM       0.431467
@<TRIPOS>BOND
     1     1     2 1
     2     1     6 1
     3     1     9 1
     4     2     3 1
     5     2     7 2
     6     3     4 2
     7     4     5 1
     8     4     8 1
     9     5     6 2
    10     5    21 1
    11     6    22 1
    12     8    23 1
    13     8    24 1
    14     9    10 1
    15     9    13 1
    16     9    25 1
    17    10    11 1
    18    10    26 1
    19    10    27 1
    20    11    12 1
    21    11    14 1
    22    11    28 1
    23    12    13 1
    24    12    15 1
    25    12    29 1
    26    14    30 1
    27    15    16 1
    28    15    31 1
    29    15    32 1
    30    16    17 1
    31    17    18 1
    32    17    19 1
    33    17    20 1
    34    33     8 1
@<TRIPOS>SUBSTRUCTURE
     1 DCM         1 TEMP              0 ****  ****    0 ROOT
