@<TRIPOS>MOLECULE
DCM
   32    33     1     0     0
SMALL
bcc


@<TRIPOS>ATOM
      1 N1          0.0770    0.6140   -0.2450 n         1 DCM     -0.368000
      2 C2          0.1590    1.5880    0.8080 c         1 DCM      0.823900
      3 N3          0.8800    1.3100    1.9810 nc        1 DCM     -0.750100
      4 C4          1.4500    0.0980    2.1120 cd        1 DCM      0.714500
      5 C5          1.3720   -0.9100    1.0770 cd        1 DCM     -0.463600
      6 C6          0.6740   -0.6000   -0.0730 cc        1 DCM      0.103600
      7 O2         -0.4120    2.6940    0.6520 o         1 DCM     -0.666500
      8 N4          2.1030   -0.2330    3.3090 nh        1 DCM     -0.897800
      9 C1'        -0.6630    0.9260   -1.4870 c3        1 DCM      0.293500
     10 C2'         0.2490    1.3380   -2.6600 c3        1 DCM     -0.129400
     11 C3'         0.3020    0.1020   -3.5700 c3        1 DCM      0.153100
     12 C4'        -0.8960   -0.7650   -3.1350 c3        1 DCM      0.050100
     13 O4'        -1.4160   -0.2070   -1.8970 os        1 DCM     -0.441600
     14 O3'         0.1760    0.5180   -4.9090 oh        1 DCM     -0.668800
     15 C5'        -0.5530   -2.2590   -2.9220 c3        1 DCM      0.224400
     16 O5'        -0.7330   -2.9710   -4.0740 os        1 DCM     -0.553200
     17 P           0.7670   -3.4130   -4.8560 p5        1 DCM      1.329900
     18 O1P         1.5300   -4.0120   -3.7080 o         1 DCM     -0.929500
     19 O2P         0.3360   -4.3150   -5.9690 o         1 DCM     -0.929500
     20 O3P         1.2210   -2.0160   -5.2300 o         1 DCM     -0.929500
     21 H5          1.8370   -1.8940    1.1910 ha        1 DCM      0.158000
     22 H6          0.5720   -1.3320   -0.9110 h4        1 DCM      0.224000
     23 HN41        2.8160   -0.9180    3.1960 hn        1 DCM      0.396800
     24 HN42        2.3550    0.5280    3.8980 hn        1 DCM      0.396800
     25 H1'        -1.4070    1.7300   -1.2140 h2        1 DCM      0.087700
     26 H2'1        1.2680    1.6460   -2.3340 hc        1 DCM      0.053200
     27 H2'2       -0.2210    2.1970   -3.2000 hc        1 DCM      0.053200
     28 H3'         1.2680   -0.4620   -3.4400 h1        1 DCM      0.098700
     29 H4'        -1.7340   -0.6770   -3.8770 h1        1 DCM      0.074700
     30 HO3'        0.4640   -0.2560   -5.4480 ho        1 DCM      0.500000
     31 H5'1       -1.2540   -2.6400   -2.1200 h1        1 DCM     -0.003800
     32 H5'2        0.5110   -2.3600   -2.5540 h1        1 DCM     -0.003800
@<TRIPOS>BOND
     1    1    2 1   
     2    1    6 1   
     3    1    9 1   
     4    2    3 1   
     5    2    7 2   
     6    3    4 2   
     7    4    5 1   
     8    4    8 1   
     9    5    6 2   
    10    5   21 1   
    11    6   22 1   
    12    8   23 1   
    13    8   24 1   
    14    9   10 1   
    15    9   13 1   
    16    9   25 1   
    17   10   11 1   
    18   10   26 1   
    19   10   27 1   
    20   11   12 1   
    21   11   14 1   
    22   11   28 1   
    23   12   13 1   
    24   12   15 1   
    25   12   29 1   
    26   14   30 1   
    27   15   16 1   
    28   15   31 1   
    29   15   32 1   
    30   16   17 1   
    31   17   18 1   
    32   17   19 1   
    33   17   20 1   
@<TRIPOS>SUBSTRUCTURE
     1 DCM         1 TEMP              0 ****  ****    0 ROOT
