@<TRIPOS>MOLECULE
molecule
   24    25     1     0     0
SMALL
bcc


@<TRIPOS>ATOM
      1 C1           0.0000     0.0000     0.0000 ca         1 DCN      -0.132000
      2 C2           1.3830     0.0000     0.0000 ca         1 DCN       0.012400
      3 C6          -0.6930     0.0000     1.2000 ca         1 DCN       0.094100
      4 C5           0.0060     0.0050     2.4040 ca         1 DCN       0.095100
      5 C4           1.3920    -0.0000     2.3980 ca         1 DCN      -0.188000
      6 C3           2.0770     0.0000     1.1970 ca         1 DCN      -0.097000
      7 C11          2.1470    -0.3980     6.5700 ca         1 DCN       0.026400
      8 C10          1.7080     0.8600     6.2000 ca         1 DCN      -0.114500
      9 C9           0.7650     0.9970     5.2010 ca         1 DCN      -0.128500
     10 C8           0.2580    -0.1290     4.5670 ca         1 DCN       0.076100
     11 C12          1.6440    -1.5220     5.9390 ca         1 DCN      -0.114500
     12 C13          0.6960    -1.3900     4.9430 ca         1 DCN      -0.128500
     13 O7          -0.6690     0.0050     3.5830 os         1 DCN      -0.198200
     14 Cl14         2.2500     0.0010    -1.5040 cl         1 DCN      -0.103400
     15 O17         -2.0520    -0.0000     1.2010 oh         1 DCN      -0.500100
     16 H1          -0.5420    -0.0020    -0.9380 ha         1 DCN       0.157000
     17 H4           1.9380     0.0010     3.3330 ha         1 DCN       0.161000
     18 H3           3.1610    -0.0020     1.1940 ha         1 DCN       0.149000
     19 H10          2.1040     1.7380     6.6960 ha         1 DCN       0.151500
     20 H9           0.4230     1.9830     4.9100 ha         1 DCN       0.154000
     21 H12          1.9870    -2.5070     6.2330 ha         1 DCN       0.151500
     22 H13          0.3010    -2.2700     4.4500 ha         1 DCN       0.154000
     23 H17         -2.3670     0.8460     0.9300 ho         1 DCN       0.420000
     24 Cl15         3.3320    -0.5680     7.8270 cl         1 DCN      -0.100400
@<TRIPOS>BOND
     1     1     2 ar
     2     1     3 ar
     3     1    16 1
     4     2     6 ar
     5     2    14 1
     6     3     4 ar
     7     3    15 1
     8     4     5 ar
     9     4    13 1
    10     5     6 ar
    11     5    17 1
    12     6    18 1
    13     7     8 ar
    14     7    11 ar
    15     7    24 1
    16     8     9 ar
    17     8    19 1
    18     9    10 ar
    19     9    20 1
    20    10    12 ar
    21    10    13 1
    22    11    12 ar
    23    11    21 1
    24    12    22 1
    25    15    23 1
@<TRIPOS>SUBSTRUCTURE
     1 DCN         1 TEMP              0 ****  ****    0 ROOT
