@<TRIPOS>MOLECULE
DCN
   24    24     1     0     0
SMALL
bcc


@<TRIPOS>ATOM
      1 C1         -0.3920    0.6610    0.0720 c1        1 DCN     -0.180000
      2 C2          0.9400    0.9340   -0.0630 c2        1 DCN     -0.263000
      3 C6         -0.8580   -0.4470    0.9350 c3        1 DCN      0.051000
      4 C5          0.1550   -0.6730    2.0420 c2        1 DCN      0.181000
      5 C4          1.5860   -0.7190    1.6510 c3        1 DCN     -0.221000
      6 C3          1.9610    0.2780    0.6270 c1        1 DCN     -0.075000
      7 C11         1.7800    0.1020    6.7960 c2        1 DCN     -0.109000
      8 C10         2.1360    0.9310    5.6030 c3        1 DCN     -0.201000
      9 C9          1.4080    0.5800    4.3970 c1        1 DCN     -0.020000
     10 C8          0.5330   -0.5360    4.3910 c2        1 DCN     -0.368000
     11 C12         2.0670   -1.2150    6.8740 c2        1 DCN     -0.197000
     12 C13         0.3600   -1.4360    5.3920 c1        1 DCN      0.335000
     13 O7         -0.3340   -0.6150    3.2630 os        1 DCN     -0.022000
     14 CL14        1.4090    2.1420   -1.1800 cl        1 DCN     -0.011000
     15 O17        -2.1490   -0.2740    1.4660 oh        1 DCN     -0.307000
     16 H1         -0.8900   -1.3950    0.3100 h1        1 DCN      0.162000
     17 H4          2.2620   -0.5760    2.5400 hc        1 DCN      0.156500
     18 H3          1.8090   -1.7330    1.2040 hc        1 DCN      0.156500
     19 H10         3.2420    0.8490    5.3770 hc        1 DCN      0.180000
     20 H9          1.9440    2.0310    5.7900 hc        1 DCN      0.180000
     21 H12         2.7080   -1.7140    6.1300 ha        1 DCN      0.152000
     22 H13         1.7660   -1.8400    7.7280 ha        1 DCN      0.152000
     23 H17        -2.3980    0.6530    1.3300 ho        1 DCN      0.241000
     24 CL15        0.9560    0.8950    8.0460 cl        1 DCN      0.027000
@<TRIPOS>BOND
     1    1    2 1   
     2    1    3 1   
     3    2    6 1   
     4    2   14 1   
     5    3    4 1   
     6    3   15 1   
     7    3   16 1   
     8    4    5 1   
     9    4   13 1   
    10    5    6 1   
    11    5   17 1   
    12    5   18 1   
    13    7    8 1   
    14    7   11 1   
    15    7   24 1   
    16    8    9 1   
    17    8   19 1   
    18    8   20 1   
    19    9   10 1   
    20   10   12 1   
    21   10   13 1   
    22   11   21 1   
    23   11   22 1   
    24   15   23 1   
@<TRIPOS>SUBSTRUCTURE
     1 DCN         1 TEMP              0 ****  ****    0 ROOT
