@<TRIPOS>MOLECULE
molecule
   14    13     1     0     0
SMALL
bcc


@<TRIPOS>ATOM
      1 O1           0.0000     0.0000     0.0000 o          1 DCO      -0.850800
      2 C1           1.2170     0.0000     0.0000 c          1 DCO       0.886800
      3 O2           1.8890     0.0000     1.1670 o          1 DCO      -0.850800
      4 C2           1.9480     0.0000    -1.2680 ce         1 DCO       0.023600
      5 C3           3.4540     0.0000    -1.2670 c3         1 DCO      -0.193400
      6 P1           4.0620    -1.7110    -1.1310 p5         1 DCO       1.060700
      7 O3           5.6660    -1.7250    -1.2660 o          1 DCO      -0.919833
      8 O4           3.6400    -2.3180     0.2990 o          1 DCO      -0.919833
      9 O5           3.4700    -2.5340    -2.2090 o          1 DCO      -0.919833
     10 C4           1.2790    -0.0010    -2.4270 c2         1 DCO      -0.009200
     11 Cl1          2.1400    -0.1540    -3.9260 cl         1 DCO      -0.188400
     12 Cl2         -0.4500     0.1540    -2.4300 cl         1 DCO      -0.188400
     13 H31          3.8140     0.5800    -0.4260 hc         1 DCO       0.034200
     14 H32          3.8150     0.4390    -2.1890 hc         1 DCO       0.034200
@<TRIPOS>BOND
     1     1     2 1
     2     2     3 1
     3     2     4 1
     4     4     5 1
     5     4    10 2
     6     5     6 1
     7     5    13 1
     8     5    14 1
     9     6     7 1
    10     6     8 1
    11     6     9 1
    12    10    11 1
    13    10    12 1
@<TRIPOS>SUBSTRUCTURE
     1 DCO         1 TEMP              0 ****  ****    0 ROOT
