@<TRIPOS>MOLECULE
molecule
   41    42     1     0     0
SMALL
bcc


@<TRIPOS>ATOM
      1 N1           0.0000     0.0000     0.0000 n          1 DCP      -0.401000
      2 C2           1.3450     0.0000     0.0000 c          1 DCP       0.857900
      3 N3           2.0330     0.0000     1.1400 nc         1 DCP      -0.877100
      4 C4           1.4060     0.0000     2.3090 cd         1 DCP       0.131500
      5 C5          -0.0030    -0.0050     2.3440 cd         1 DCP      -0.269600
      6 C6          -0.6880     0.0010     1.1770 cc         1 DCP      -0.119400
      7 O2           1.9450    -0.0010    -1.0630 o          1 DCP      -0.738500
      8 N4           2.1270    -0.0010     3.4800 nz         1 DCP      -0.611600
      9 C1'         -0.7280    -0.0000    -1.2700 c3         1 DCP       0.325500
     10 C2'         -0.3550     1.2510    -2.0880 c3         1 DCP      -0.141400
     11 C3'          0.2120     0.6830    -3.4120 c3         1 DCP       0.108100
     12 C4'         -0.3870    -0.7460    -3.4360 c3         1 DCP       0.147100
     13 O4'         -0.3560    -1.1500    -2.0480 os         1 DCP      -0.369600
     14 O3'         -0.2440     1.4460    -4.5310 oh         1 DCP      -0.621800
     15 C5'          0.4740    -1.6780    -4.2910 c3         1 DCP       0.162400
     16 O5'         -0.0990    -2.9860    -4.2950 os         1 DCP      -0.537200
     17 PA           0.8520    -3.9080    -5.2090 p5         1 DCP       1.266800
     18 O1A          2.3340    -3.9360    -4.5820 o          1 DCP      -0.749500
     19 O2A          0.9070    -3.3540    -6.5800 o          1 DCP      -0.749500
     20 O3A          0.2630    -5.4050    -5.2590 os         1 DCP      -0.627800
     21 PB           1.2580    -6.2660    -6.1850 p5         1 DCP       1.307800
     22 O1B          2.7330    -6.2560    -5.5400 o          1 DCP      -0.523500
     23 O2B          1.3070    -5.6770    -7.5400 o          1 DCP      -0.523500
     24 O3B          0.7250    -7.7830    -6.2790 os         1 DCP      -0.625800
     25 PG           1.7630    -8.5840    -7.2130 p5         1 DCP       1.176900
     26 O1G          1.2890   -10.1160    -7.3510 o          1 DCP      -0.648500
     27 O2G          1.8070    -7.9030    -8.6710 o          1 DCP      -0.648500
     28 O3G          3.1100    -8.5380    -6.6050 o          1 DCP      -0.648500
     29 H5          -0.5220     0.1740     3.2780 ha         1 DCP       0.054000
     30 H6          -1.7600    -0.1510     1.1770 h4         1 DCP       0.101000
     31 HN41         1.8260    -0.7620     4.0570 hn         1 DCP       0.345467
     32 HN42         1.9790     0.8630     3.9640 hn         1 DCP       0.345467
     33 H1'         -1.7960    -0.0120    -1.0870 h2         1 DCP       0.018700
     34 H2'1         0.4000     1.8290    -1.5710 hc         1 DCP       0.044700
     35 H2'2        -1.2360     1.8520    -2.2820 hc         1 DCP       0.044700
     36 H3'          1.2940     0.6430    -3.3780 h1         1 DCP       0.090700
     37 H4'         -1.4070    -0.7210    -3.7990 h1         1 DCP       0.037700
     38 HO3'         0.4350     2.0410    -4.8030 ho         1 DCP       0.384000
     39 H5'1         0.5160    -1.2990    -5.3060 h1         1 DCP       0.067700
     40 H5'2         1.4750    -1.7230    -3.8800 h1         1 DCP       0.067700
     41 H43          3.1010    -0.0980     3.2720 hn         1 DCP       0.345467
@<TRIPOS>BOND
     1     1     2 1
     2     1     6 1
     3     1     9 1
     4     2     3 1
     5     2     7 2
     6     3     4 2
     7     4     5 1
     8     4     8 1
     9     5     6 2
    10     5    29 1
    11     6    30 1
    12     8    31 1
    13     8    32 1
    14     9    10 1
    15     9    13 1
    16     9    33 1
    17    10    11 1
    18    10    34 1
    19    10    35 1
    20    11    12 1
    21    11    14 1
    22    11    36 1
    23    12    13 1
    24    12    15 1
    25    12    37 1
    26    14    38 1
    27    15    16 1
    28    15    39 1
    29    15    40 1
    30    16    17 1
    31    17    18 1
    32    17    19 1
    33    17    20 1
    34    20    21 1
    35    21    22 1
    36    21    23 1
    37    21    24 1
    38    24    25 1
    39    25    26 1
    40    25    27 1
    41    25    28 1
    42    41     8 1
@<TRIPOS>SUBSTRUCTURE
     1 DCP         1 TEMP              0 ****  ****    0 ROOT
