@<TRIPOS>MOLECULE
DCQ
   53    53     1     0     0
SMALL
bcc


@<TRIPOS>ATOM
      1 O2         -0.0780   -0.0470    0.0350 o         1 DCQ     -0.495100
      2 C2          1.1570   -0.0170   -0.0060 c         1 DCQ      0.549500
      3 C3          1.9780   -0.0210    1.2290 cc        1 DCQ      0.011900
      4 O3          1.3420   -0.1130    2.4490 os        1 DCQ     -0.313900
      5 C3M         0.4930    0.9920    2.7720 c3        1 DCQ      0.110700
      6 C4          3.3360   -0.0400    1.1830 cd        1 DCQ      0.010900
      7 O4          4.0660    0.1500    2.3370 os        1 DCQ     -0.316900
      8 C4M         4.8310   -0.9850    2.7550 c3        1 DCQ      0.111700
      9 C5          4.0690   -0.1650   -0.1020 c         1 DCQ      0.551500
     10 O5          5.2880   -0.3640   -0.1390 o         1 DCQ     -0.495100
     11 C1          1.9020    0.0250   -1.2910 cc        1 DCQ     -0.129400
     12 C1M         1.0740    0.1300   -2.5170 c3        1 DCQ     -0.069900
     13 C6          3.2500   -0.0380   -1.3350 cd        1 DCQ     -0.133400
     14 C7          4.0150    0.0010   -2.6140 c3        1 DCQ     -0.050200
     15 C8          4.3870    1.4220   -2.9970 c3        1 DCQ     -0.073400
     16 C9          5.1540    1.4430   -4.3020 c3        1 DCQ     -0.078400
     17 C10         5.5280    2.8570   -4.6920 c3        1 DCQ     -0.079400
     18 C11         6.2930    2.8820   -5.9980 c3        1 DCQ     -0.079400
     19 C12         6.6660    4.2950   -6.3890 c3        1 DCQ     -0.079400
     20 C13         7.4300    4.3200   -7.6960 c3        1 DCQ     -0.079400
     21 C14         7.8010    5.7340   -8.0880 c3        1 DCQ     -0.079400
     22 C15         8.5650    5.7600   -9.3960 c3        1 DCQ     -0.080400
     23 C16         8.9370    7.1660   -9.7910 c3        1 DCQ     -0.092100
     24 H3M        -0.3360    1.0830    2.0300 h1        1 DCQ      0.052033
     25 H3MA        1.0910    1.9340    2.8220 h1        1 DCQ      0.052033
     26 H3MB        0.0970    0.7190    3.7830 h1        1 DCQ      0.052033
     27 H4M         4.1510   -1.8420    2.9810 h1        1 DCQ      0.051700
     28 H4MA        5.5800   -1.2640    1.9760 h1        1 DCQ      0.051700
     29 H4MB        5.3360   -0.6220    3.6850 h1        1 DCQ      0.051700
     30 H1M         1.4360    0.9710   -3.1620 hc        1 DCQ      0.062033
     31 H1MA       -0.0010    0.3090   -2.2660 hc        1 DCQ      0.062033
     32 H1MB        1.1440   -0.8190   -3.1070 hc        1 DCQ      0.062033
     33 H7          3.4090   -0.4650   -3.4370 hc        1 DCQ      0.065200
     34 H7A         4.9550   -0.6080   -2.5010 hc        1 DCQ      0.065200
     35 H8          3.4590    2.0450   -3.0940 hc        1 DCQ      0.046700
     36 H8A         5.0140    1.8750   -2.1840 hc        1 DCQ      0.046700
     37 H9          6.0830    0.8220   -4.2030 hc        1 DCQ      0.042200
     38 H9A         4.5310    0.9820   -5.1140 hc        1 DCQ      0.042200
     39 H10         4.6000    3.4800   -4.7880 hc        1 DCQ      0.040700
     40 H10A        6.1530    3.3170   -3.8810 hc        1 DCQ      0.040700
     41 H11         7.2230    2.2610   -5.9010 hc        1 DCQ      0.039700
     42 H11A        5.6700    2.4190   -6.8080 hc        1 DCQ      0.039700
     43 H12         7.2910    4.7570   -5.5800 hc        1 DCQ      0.040200
     44 H12A        5.7370    4.9170   -6.4850 hc        1 DCQ      0.040200
     45 H13         6.8060    3.8570   -8.5050 hc        1 DCQ      0.039200
     46 H13A        8.3600    3.7000   -7.6000 hc        1 DCQ      0.039200
     47 H14         6.8720    6.3550   -8.1840 hc        1 DCQ      0.039700
     48 H14A        8.4260    6.1970   -7.2800 hc        1 DCQ      0.039700
     49 H15         7.9400    5.2950  -10.2030 hc        1 DCQ      0.038700
     50 H15A        9.4940    5.1380   -9.2980 hc        1 DCQ      0.038700
     51 H16         9.5810    7.6380   -9.0100 hc        1 DCQ      0.032700
     52 H16A        9.4990    7.1620  -10.7560 hc        1 DCQ      0.032700
     53 H16B        8.0230    7.7950   -9.9170 hc        1 DCQ      0.032700
@<TRIPOS>BOND
     1    1    2 2   
     2    2    3 1   
     3    2   11 1   
     4    3    4 1   
     5    3    6 2   
     6    4    5 1   
     7    5   24 1   
     8    5   25 1   
     9    5   26 1   
    10    6    7 1   
    11    6    9 1   
    12    7    8 1   
    13    8   27 1   
    14    8   28 1   
    15    8   29 1   
    16    9   10 2   
    17    9   13 1   
    18   11   12 1   
    19   11   13 2   
    20   12   30 1   
    21   12   31 1   
    22   12   32 1   
    23   13   14 1   
    24   14   15 1   
    25   14   33 1   
    26   14   34 1   
    27   15   16 1   
    28   15   35 1   
    29   15   36 1   
    30   16   17 1   
    31   16   37 1   
    32   16   38 1   
    33   17   18 1   
    34   17   39 1   
    35   17   40 1   
    36   18   19 1   
    37   18   41 1   
    38   18   42 1   
    39   19   20 1   
    40   19   43 1   
    41   19   44 1   
    42   20   21 1   
    43   20   45 1   
    44   20   46 1   
    45   21   22 1   
    46   21   47 1   
    47   21   48 1   
    48   22   23 1   
    49   22   49 1   
    50   22   50 1   
    51   23   51 1   
    52   23   52 1   
    53   23   53 1   
@<TRIPOS>SUBSTRUCTURE
     1 DCQ         1 TEMP              0 ****  ****    0 ROOT
