@<TRIPOS>MOLECULE
molecule
   53    53     1     0     0
SMALL
bcc


@<TRIPOS>ATOM
      1 O2           0.0000     0.0000     0.0000 o          1 DCQ      -0.489100
      2 C2           1.2140     0.0000     0.0000 c          1 DCQ       0.545500
      3 C3           1.9520     0.0000     1.2780 cc         1 DCQ       0.017900
      4 O3           1.2750    -0.0000     2.4550 os         1 DCQ      -0.314900
      5 C3M          0.5030     1.1640     2.7580 c3         1 DCQ       0.134700
      6 C4           3.3050    -0.0010     1.2750 cd         1 DCQ       0.017900
      7 O4           3.9880    -0.0010     2.4490 os         1 DCQ      -0.315900
      8 C4M          4.7590    -1.1670     2.7490 c3         1 DCQ       0.134700
      9 C5           4.0370    -0.0010    -0.0060 c          1 DCQ       0.544500
     10 O5           5.2520    -0.0010    -0.0120 o          1 DCQ      -0.489100
     11 C1           1.9530    -0.0060    -1.2810 cc         1 DCQ      -0.144400
     12 C1M          1.1980    -0.0110    -2.5850 c3         1 DCQ      -0.051900
     13 C6           3.2920    -0.0010    -1.2840 cd         1 DCQ      -0.145400
     14 C7           4.0410    -0.0020    -2.5910 c3         1 DCQ      -0.038200
     15 C8           4.4050     1.4360    -2.9720 c3         1 DCQ      -0.076400
     16 C9           5.1650     1.4340    -4.2990 c3         1 DCQ      -0.081400
     17 C10          5.5280     2.8710    -4.6800 c3         1 DCQ      -0.081400
     18 C11          6.2880     2.8710    -6.0070 c3         1 DCQ      -0.081400
     19 C12          6.6520     4.3080    -6.3870 c3         1 DCQ      -0.082400
     20 C13          7.4120     4.3070    -7.7160 c3         1 DCQ      -0.082400
     21 C14          7.7750     5.7440    -8.0960 c3         1 DCQ      -0.081400
     22 C15          8.5350     5.7440    -9.4230 c3         1 DCQ      -0.084400
     23 C16          8.8990     7.1810    -9.8030 c3         1 DCQ      -0.092100
     24 H3M         -0.5260     1.0030     2.4600 h1         1 DCQ       0.043700
     25 H3MA         0.5440     1.3570     3.8230 h1         1 DCQ       0.043700
     26 H3MB         0.9050     2.0140     2.2220 h1         1 DCQ       0.043700
     27 H4M          4.7330    -1.3510     3.8170 h1         1 DCQ       0.043700
     28 H4MA         5.7840    -1.0120     2.4340 h1         1 DCQ       0.043700
     29 H4MB         4.3450    -2.0190     2.2250 h1         1 DCQ       0.043700
     30 H1M          1.5230    -0.8510    -3.1870 hc         1 DCQ       0.058367
     31 H1MA         1.3920     0.9110    -3.1180 hc         1 DCQ       0.058367
     32 H1MB         0.1370    -0.0980    -2.3880 hc         1 DCQ       0.058367
     33 H7           4.9460    -0.5880    -2.4890 hc         1 DCQ       0.061700
     34 H7A          3.4170    -0.4330    -3.3640 hc         1 DCQ       0.061700
     35 H8           5.0290     1.8670    -2.1990 hc         1 DCQ       0.048200
     36 H8A          3.5000     2.0220    -3.0750 hc         1 DCQ       0.048200
     37 H9           4.5410     1.0020    -5.0720 hc         1 DCQ       0.043200
     38 H9A          6.0700     0.8490    -4.1960 hc         1 DCQ       0.043200
     39 H10          6.1510     3.3030    -3.9060 hc         1 DCQ       0.042700
     40 H10A         4.6220     3.4570    -4.7820 hc         1 DCQ       0.042700
     41 H11          5.6650     2.4400    -6.7810 hc         1 DCQ       0.041700
     42 H11A         7.1940     2.2850    -5.9050 hc         1 DCQ       0.041700
     43 H12          5.7470     4.8950    -6.4890 hc         1 DCQ       0.041200
     44 H12A         7.2760     4.7390    -5.6140 hc         1 DCQ       0.041200
     45 H13          6.7870     3.8760    -8.4890 hc         1 DCQ       0.041200
     46 H13A         8.3170     3.7210    -7.6140 hc         1 DCQ       0.041200
     47 H14          8.3990     6.1760    -7.3220 hc         1 DCQ       0.041200
     48 H14A         6.8700     6.3310    -8.1980 hc         1 DCQ       0.041200
     49 H15          9.4410     5.1580    -9.3200 hc         1 DCQ       0.039700
     50 H15A         7.9120     5.3130   -10.1960 hc         1 DCQ       0.039700
     51 H16          9.5230     7.6120    -9.0290 hc         1 DCQ       0.032367
     52 H16A         9.4370     7.1800   -10.7430 hc         1 DCQ       0.032367
     53 H16B         7.9940     7.7670    -9.9050 hc         1 DCQ       0.032367
@<TRIPOS>BOND
     1     1     2 2
     2     2     3 1
     3     2    11 1
     4     3     4 1
     5     3     6 2
     6     4     5 1
     7     6     7 1
     8     6     9 1
     9     7     8 1
    10     9    10 2
    11     9    13 1
    12    11    12 1
    13    11    13 2
    14    13    14 1
    15    14    15 1
    16    15    16 1
    17    16    17 1
    18    17    18 1
    19    18    19 1
    20    19    20 1
    21    20    21 1
    22    21    22 1
    23    22    23 1
    24     5    24 1
    25     5    25 1
    26     5    26 1
    27     8    27 1
    28     8    28 1
    29     8    29 1
    30    12    30 1
    31    12    31 1
    32    12    32 1
    33    14    33 1
    34    14    34 1
    35    15    35 1
    36    15    36 1
    37    16    37 1
    38    16    38 1
    39    17    39 1
    40    17    40 1
    41    18    41 1
    42    18    42 1
    43    19    43 1
    44    19    44 1
    45    20    45 1
    46    20    46 1
    47    21    47 1
    48    21    48 1
    49    22    49 1
    50    22    50 1
    51    23    51 1
    52    23    52 1
    53    23    53 1
@<TRIPOS>SUBSTRUCTURE
     1 DCQ         1 TEMP              0 ****  ****    0 ROOT
