@<TRIPOS>MOLECULE
molecule
   61    60     1     0     0
SMALL
bcc


@<TRIPOS>ATOM
      1 O1           0.0000     0.0000     0.0000 o          1 DCR      -0.858300
      2 C1           1.3430     0.0000     0.0000 c          1 DCR       0.890600
      3 O2           1.9460     0.0000     1.0470 o          1 DCR      -0.858300
      4 C2           2.0970    -0.0000    -1.3050 c3         1 DCR      -0.183400
      5 C3           3.6010     0.0000    -1.0240 c3         1 DCR      -0.063400
      6 C4           4.3660    -0.0010    -2.3490 c3         1 DCR      -0.088400
      7 C5           5.8700    -0.0010    -2.0690 c3         1 DCR      -0.081400
      8 C6           6.6360    -0.0020    -3.3940 c3         1 DCR      -0.083400
      9 C7           8.1400    -0.0010    -3.1140 c3         1 DCR      -0.082400
     10 C8           8.9050    -0.0020    -4.4390 c3         1 DCR      -0.082400
     11 C9          10.4090    -0.0020    -4.1580 c3         1 DCR      -0.082400
     12 C10         11.1750    -0.0030    -5.4830 c3         1 DCR      -0.082400
     13 C11         12.6790    -0.0030    -5.2030 c3         1 DCR      -0.082400
     14 C12         13.4440    -0.0030    -6.5280 c3         1 DCR      -0.082400
     15 C13         14.9480    -0.0040    -6.2480 c3         1 DCR      -0.082400
     16 C14         15.7130    -0.0030    -7.5730 c3         1 DCR      -0.082400
     17 C15         17.2190    -0.0040    -7.2930 c3         1 DCR      -0.082400
     18 C16         17.9840    -0.0040    -8.6170 c3         1 DCR      -0.082400
     19 C17         19.4880    -0.0050    -8.3380 c3         1 DCR      -0.082400
     20 C18         20.2530    -0.0050    -9.6620 c3         1 DCR      -0.081400
     21 C19         21.7570    -0.0050    -9.3830 c3         1 DCR      -0.084400
     22 C20         22.5230    -0.0060   -10.7070 c3         1 DCR      -0.092100
     23 H2           1.8350     0.8840    -1.8730 hc         1 DCR       0.026700
     24 H2A          1.8350    -0.8850    -1.8730 hc         1 DCR       0.026700
     25 H3           3.8630    -0.8840    -0.4550 hc         1 DCR       0.044700
     26 H3A          3.8620     0.8850    -0.4560 hc         1 DCR       0.044700
     27 H4           4.1040    -0.8850    -2.9170 hc         1 DCR       0.028700
     28 H4A          4.1050     0.8840    -2.9170 hc         1 DCR       0.028700
     29 H5           6.1320    -0.8860    -1.5010 hc         1 DCR       0.038700
     30 H5A          6.1320     0.8830    -1.5010 hc         1 DCR       0.038700
     31 H6           6.3740    -0.8870    -3.9610 hc         1 DCR       0.036200
     32 H6A          6.3740     0.8820    -3.9630 hc         1 DCR       0.036200
     33 H7           8.4010    -0.8850    -2.5450 hc         1 DCR       0.039700
     34 H7A          8.4010     0.8840    -2.5460 hc         1 DCR       0.039700
     35 H8           8.6440     0.8830    -5.0070 hc         1 DCR       0.038700
     36 H8A          8.6430    -0.8860    -5.0070 hc         1 DCR       0.038700
     37 H9          10.6700    -0.8870    -3.5900 hc         1 DCR       0.039700
     38 H9A         10.6710     0.8820    -3.5900 hc         1 DCR       0.039700
     39 H10         10.9130    -0.8880    -6.0510 hc         1 DCR       0.039700
     40 H10A        10.9130     0.8810    -6.0520 hc         1 DCR       0.039700
     41 H11         12.9400     0.8820    -4.6350 hc         1 DCR       0.040700
     42 H11A        12.9400    -0.8870    -4.6340 hc         1 DCR       0.040700
     43 H12         13.1830     0.8810    -7.0960 hc         1 DCR       0.040700
     44 H12A        13.1820    -0.8880    -7.0960 hc         1 DCR       0.040700
     45 H13         15.2100     0.8800    -5.6800 hc         1 DCR       0.040700
     46 H13A        15.2090    -0.8890    -5.6800 hc         1 DCR       0.040700
     47 H14         15.4520     0.8820    -8.1410 hc         1 DCR       0.040700
     48 H14A        15.4520    -0.8870    -8.1410 hc         1 DCR       0.040700
     49 H15         17.4800    -0.8880    -6.7240 hc         1 DCR       0.040700
     50 H15A        17.4810     0.8810    -6.7250 hc         1 DCR       0.040700
     51 H16         17.7230     0.8800    -9.1860 hc         1 DCR       0.040700
     52 H16A        17.7220    -0.8890    -9.1850 hc         1 DCR       0.040700
     53 H17         19.7490    -0.8900    -7.7700 hc         1 DCR       0.040700
     54 H17A        19.7500     0.8790    -7.7690 hc         1 DCR       0.040700
     55 H18         19.9920     0.8800   -10.2300 hc         1 DCR       0.040700
     56 H18A        19.9920    -0.8890   -10.2310 hc         1 DCR       0.040700
     57 H19         22.0190     0.8790    -8.8150 hc         1 DCR       0.039700
     58 H19A        22.0190    -0.8900    -8.8140 hc         1 DCR       0.039700
     59 H20         23.5880    -0.0060   -10.5090 hc         1 DCR       0.032033
     60 H20A        22.2610    -0.8900   -11.2750 hc         1 DCR       0.032033
     61 H20B        22.2610     0.8790   -11.2760 hc         1 DCR       0.032033
@<TRIPOS>BOND
     1     2     1 1
     2     4     2 1
     3     3     2 1
     4     5     4 1
     5     4    23 1
     6     4    24 1
     7     6     5 1
     8     5    25 1
     9     5    26 1
    10     6     7 1
    11     6    27 1
    12     6    28 1
    13     8     7 1
    14     7    29 1
    15     7    30 1
    16     8     9 1
    17     8    31 1
    18     8    32 1
    19    10     9 1
    20     9    33 1
    21     9    34 1
    22    11    10 1
    23    10    35 1
    24    10    36 1
    25    12    11 1
    26    11    37 1
    27    11    38 1
    28    13    12 1
    29    12    39 1
    30    12    40 1
    31    14    13 1
    32    13    41 1
    33    13    42 1
    34    15    14 1
    35    14    43 1
    36    14    44 1
    37    16    15 1
    38    15    45 1
    39    15    46 1
    40    17    16 1
    41    16    47 1
    42    16    48 1
    43    17    18 1
    44    17    49 1
    45    17    50 1
    46    18    19 1
    47    18    51 1
    48    18    52 1
    49    20    19 1
    50    19    53 1
    51    19    54 1
    52    20    21 1
    53    20    55 1
    54    20    56 1
    55    22    21 1
    56    21    57 1
    57    21    58 1
    58    22    59 1
    59    22    60 1
    60    22    61 1
@<TRIPOS>SUBSTRUCTURE
     1 DCR         1 TEMP              0 ****  ****    0 ROOT
