@<TRIPOS>MOLECULE
DCR
   61    60     1     0     0
SMALL
bcc


@<TRIPOS>ATOM
      1 O1          0.3180    0.6190    0.2260 o         1 DCR     -0.853800
      2 C1          1.3200   -0.1330    0.0490 c         1 DCR      0.907600
      3 O2          1.7060   -0.9990    0.8860 o         1 DCR     -0.853800
      4 C2          2.0940    0.0060   -1.2740 c3        1 DCR     -0.193400
      5 C3          3.5840    0.0400   -1.0380 c3        1 DCR     -0.065400
      6 C4          4.3630   -0.0090   -2.3360 c3        1 DCR     -0.078400
      7 C5          5.8560    0.0440   -2.0880 c3        1 DCR     -0.078400
      8 C6          6.6360   -0.0130   -3.3840 c3        1 DCR     -0.078400
      9 C7          8.1280    0.0410   -3.1340 c3        1 DCR     -0.079400
     10 C8          8.9080   -0.0170   -4.4300 c3        1 DCR     -0.078400
     11 C9         10.4000    0.0370   -4.1790 c3        1 DCR     -0.079400
     12 C10        11.1800   -0.0200   -5.4750 c3        1 DCR     -0.078400
     13 C11        12.6710    0.0330   -5.2230 c3        1 DCR     -0.079400
     14 C12        13.4510   -0.0230   -6.5190 c3        1 DCR     -0.078400
     15 C13        14.9420    0.0280   -6.2670 c3        1 DCR     -0.079400
     16 C14        15.7220   -0.0260   -7.5630 c3        1 DCR     -0.079400
     17 C15        17.2130    0.0250   -7.3110 c3        1 DCR     -0.079400
     18 C16        17.9930   -0.0280   -8.6070 c3        1 DCR     -0.078400
     19 C17        19.4840    0.0220   -8.3550 c3        1 DCR     -0.079400
     20 C18        20.2640   -0.0300   -9.6510 c3        1 DCR     -0.079400
     21 C19        21.7560    0.0190   -9.4000 c3        1 DCR     -0.080400
     22 C20        22.5360   -0.0310  -10.6880 c3        1 DCR     -0.092100
     23 H2          1.8290   -0.8700   -1.9190 hc        1 DCR      0.018700
     24 H2A         1.7620    0.9340   -1.8030 hc        1 DCR      0.018700
     25 H3          3.8640   -0.8290   -0.3860 hc        1 DCR      0.043700
     26 H3A         3.8520    0.9740   -0.4760 hc        1 DCR      0.043700
     27 H4          4.1090   -0.9500   -2.8900 hc        1 DCR      0.025700
     28 H4A         4.0610    0.8510   -2.9900 hc        1 DCR      0.025700
     29 H5          6.1110    0.9880   -1.5380 hc        1 DCR      0.036700
     30 H5A         6.1560   -0.8130   -1.4300 hc        1 DCR      0.036700
     31 H6          6.3820   -0.9570   -3.9340 hc        1 DCR      0.034200
     32 H6A         6.3340    0.8430   -4.0430 hc        1 DCR      0.034200
     33 H7          8.3830    0.9850   -2.5840 hc        1 DCR      0.037200
     34 H7A         8.4290   -0.8160   -2.4750 hc        1 DCR      0.037200
     35 H8          8.6530   -0.9600   -4.9800 hc        1 DCR      0.036700
     36 H8A         8.6070    0.8410   -5.0880 hc        1 DCR      0.036700
     37 H9         10.7010   -0.8210   -3.5210 hc        1 DCR      0.038700
     38 H9A        10.6540    0.9800   -3.6280 hc        1 DCR      0.038700
     39 H10        10.9240   -0.9630   -6.0260 hc        1 DCR      0.038200
     40 H10A       10.8790    0.8380   -6.1320 hc        1 DCR      0.038200
     41 H11        12.9260    0.9760   -4.6710 hc        1 DCR      0.038700
     42 H11A       12.9720   -0.8260   -4.5660 hc        1 DCR      0.038700
     43 H12        13.1500    0.8360   -7.1760 hc        1 DCR      0.038700
     44 H12A       13.1950   -0.9650   -7.0720 hc        1 DCR      0.038700
     45 H13        15.1980    0.9700   -5.7140 hc        1 DCR      0.038700
     46 H13A       15.2420   -0.8310   -5.6120 hc        1 DCR      0.038700
     47 H14        15.4220    0.8340   -8.2190 hc        1 DCR      0.038700
     48 H14A       15.4660   -0.9670   -8.1170 hc        1 DCR      0.038700
     49 H15        17.5130   -0.8360   -6.6570 hc        1 DCR      0.039200
     50 H15A       17.4690    0.9660   -6.7560 hc        1 DCR      0.039200
     51 H16        17.6930    0.8330   -9.2610 hc        1 DCR      0.038700
     52 H16A       17.7360   -0.9690   -9.1620 hc        1 DCR      0.038700
     53 H17        19.7840   -0.8390   -7.7010 hc        1 DCR      0.038700
     54 H17A       19.7400    0.9630   -7.7990 hc        1 DCR      0.038700
     55 H18        19.9650    0.8320  -10.3040 hc        1 DCR      0.038700
     56 H18A       20.0070   -0.9700  -10.2070 hc        1 DCR      0.038700
     57 H19        22.0100    0.9600   -8.8420 hc        1 DCR      0.037700
     58 H19A       22.0520   -0.8420   -8.7450 hc        1 DCR      0.037700
     59 H20        22.3140   -0.9730  -11.2460 hc        1 DCR      0.031367
     60 H20A       23.6330    0.0060  -10.4800 hc        1 DCR      0.031367
     61 H20B       22.2720    0.8340  -11.3430 hc        1 DCR      0.031367
@<TRIPOS>BOND
     1    1    2 1   
     2    2    3 1   
     3    2    4 1   
     4    4    5 1   
     5    4   23 1   
     6    4   24 1   
     7    5    6 1   
     8    5   25 1   
     9    5   26 1   
    10    6    7 1   
    11    6   27 1   
    12    6   28 1   
    13    7    8 1   
    14    7   29 1   
    15    7   30 1   
    16    8    9 1   
    17    8   31 1   
    18    8   32 1   
    19    9   10 1   
    20    9   33 1   
    21    9   34 1   
    22   10   11 1   
    23   10   35 1   
    24   10   36 1   
    25   11   12 1   
    26   11   37 1   
    27   11   38 1   
    28   12   13 1   
    29   12   39 1   
    30   12   40 1   
    31   13   14 1   
    32   13   41 1   
    33   13   42 1   
    34   14   15 1   
    35   14   43 1   
    36   14   44 1   
    37   15   16 1   
    38   15   45 1   
    39   15   46 1   
    40   16   17 1   
    41   16   47 1   
    42   16   48 1   
    43   17   18 1   
    44   17   49 1   
    45   17   50 1   
    46   18   19 1   
    47   18   51 1   
    48   18   52 1   
    49   19   20 1   
    50   19   53 1   
    51   19   54 1   
    52   20   21 1   
    53   20   55 1   
    54   20   56 1   
    55   21   22 1   
    56   21   57 1   
    57   21   58 1   
    58   22   59 1   
    59   22   60 1   
    60   22   61 1   
@<TRIPOS>SUBSTRUCTURE
     1 DCR         1 TEMP              0 ****  ****    0 ROOT
