@<TRIPOS>MOLECULE
DCS
   36    37     1     0     0
SMALL
bcc


@<TRIPOS>ATOM
      1 N1           0.0000     0.0000     0.0000 nb         1 DCS      -0.596000
      2 C2           1.3180     0.0000     0.0000 ca         1 DCS       0.266600
      3 C2A          2.0640    -0.0080    -1.3090 c3         1 DCS      -0.017400
      4 C3           2.0250     0.0000     1.1930 ca         1 DCS      -0.019200
      5 O3           3.3840    -0.0010     1.1880 oh         1 DCS      -0.512100
      6 C4           1.3230     0.0120     2.3950 ca         1 DCS      -0.141300
      7 C4A          2.0520     0.0200     3.7140 c3         1 DCS       0.192100
      8 C5          -0.0610     0.0120     2.3480 ca         1 DCS      -0.105600
      9 C6          -0.6950     0.0050     1.1210 ca         1 DCS       0.398200
     10 C5A         -0.8660     0.0190     3.6230 c3         1 DCS       0.255700
     11 O4P         -2.2590     0.0180     3.3050 os         1 DCS      -0.457200
     12 P           -3.0540     0.0240     4.7040 p5         1 DCS       0.659900
     13 O1P         -2.6920     1.2360     5.4710 o          1 DCS      -0.754167
     14 O2P         -4.6390     0.0230     4.4200 o          1 DCS      -0.754167
     15 O3P         -2.6590    -1.2840     5.5530 o          1 DCS      -0.754167
     16 N            2.2890    -1.3610     4.1500 n7         1 DCS      -0.512200
     17 CA           2.9980    -1.2840     5.4330 c3         1 DCS      -0.013500
     18 C            2.0210    -1.3470     6.5930 c          1 DCS       0.581500
     19 O            0.9860    -0.7230     6.6970 o          1 DCS      -0.520500
     20 ND           2.5120    -2.2320     7.4860 ns         1 DCS      -0.100400
     21 OG           3.7550    -2.7620     7.0690 os         1 DCS      -0.323900
     22 CB           3.8770    -2.5360     5.6510 c3         1 DCS       0.200400
     23 H2A1         2.7530    -0.8440    -1.3270 hc         1 DCS      -0.006967
     24 H2A2         1.3590    -0.1030    -2.1260 hc         1 DCS      -0.006967
     25 H2A3         2.6170     0.9180    -1.4150 hc         1 DCS      -0.006967
     26 HO3          3.6990     0.8790     1.0630 ho         1 DCS       0.381000
     27 H4A1         3.0000     0.5310     3.6000 h1         1 DCS       0.024200
     28 H4A2         1.4520     0.5350     4.4550 h1         1 DCS       0.024200
     29 H6          -1.7770     0.0050     1.0790 h4         1 DCS       0.034100
     30 H5A1        -0.6270     0.9060     4.1970 h1         1 DCS       0.041200
     31 H5A2        -0.6270    -0.8630     4.2060 h1         1 DCS       0.041200
     32 HN           2.8650    -1.8290     3.4780 hn         1 DCS       0.243800
     33 HA           3.5980    -0.3850     5.4920 h1         1 DCS       0.028700
     34 HND          2.0540    -2.4820     8.3400 hn         1 DCS       0.205500
     35 HB1          3.4870    -3.3800     5.0940 h1         1 DCS       0.014200
     36 HB2          4.9070    -2.3320     5.3840 h1         1 DCS       0.014200
@<TRIPOS>BOND
     1     1     2 ar  
     2     1     9 ar  
     3     2     3 1   
     4     2     4 ar  
     5     3    23 1   
     6     3    24 1   
     7     3    25 1   
     8     4     5 1   
     9     4     6 ar  
    10     5    26 1   
    11     6     7 1   
    12     6     8 ar  
    13     7    16 1   
    14     7    27 1   
    15     7    28 1   
    16     8     9 ar  
    17     8    10 1   
    18     9    29 1   
    19    10    11 1   
    20    10    30 1   
    21    10    31 1   
    22    11    12 1   
    23    12    13 1   
    24    12    14 1   
    25    12    15 1   
    26    16    17 1   
    27    16    32 1   
    28    17    18 1   
    29    17    22 1   
    30    17    33 1   
    31    18    19 2   
    32    18    20 1   
    33    20    21 1   
    34    20    34 1   
    35    21    22 1   
    36    22    35 1   
    37    22    36 1   
@<TRIPOS>SUBSTRUCTURE
     1 DCS         1 TEMP              0 ****  ****    0 ROOT
