@<TRIPOS>MOLECULE
molecule
   80    83     1     0     0
SMALL
bcc


@<TRIPOS>ATOM
      1 C2           0.0000     0.0000     0.0000 c3         1 DCU       0.015300
      2 C3           1.5300     0.0000     0.0000 c3         1 DCU      -0.107400
      3 C4           2.0400     0.0000     1.4420 c3         1 DCU      -0.081400
      4 C5           3.5700    -0.0010     1.4420 c3         1 DCU      -0.084400
      5 C6           4.0810    -0.0010     2.8850 c3         1 DCU      -0.087400
      6 C7           5.6100    -0.0010     2.8840 c3         1 DCU      -0.082400
      7 C8           6.1210    -0.0010     4.3270 c3         1 DCU      -0.084400
      8 C9           7.6510    -0.0010     4.3270 c3         1 DCU      -0.077400
      9 C10          8.1610    -0.0020     5.7690 c3         1 DCU      -0.114400
     10 C11          9.6910    -0.0020     5.7690 c3         1 DCU       0.105800
     11 N12         10.1800    -0.0020     7.1540 n4         1 DCU      -0.576800
     12 C13          9.6900    -1.2010     7.8460 c3         1 DCU       0.089100
     13 C14          9.6910     1.1970     7.8470 c3         1 DCU       0.089100
     14 C15         11.6500    -0.0020     7.1530 c3         1 DCU       0.089100
     15 C16         -1.9150    -0.0050    -5.3390 ca         1 DCU      -0.209000
     16 C17         -1.4270    -0.0040    -4.0340 ca         1 DCU       0.063000
     17 C18         -1.2050     1.1680    -3.3970 ca         1 DCU      -0.200000
     18 C19         -1.4680     2.3910    -4.0560 ca         1 DCU      -0.156000
     19 C20         -1.9520     2.3880    -5.3500 ca         1 DCU       0.156600
     20 C21         -2.1710     1.1880    -5.9810 ca         1 DCU       0.006000
     21 C22         -0.7080     1.1680    -2.0640 cp         1 DCU       0.077700
     22 N23         -0.4560    -0.0060    -1.4330 na         1 DCU       0.079900
     23 C24         -0.6930    -1.2600    -2.1150 ca         1 DCU      -0.138300
     24 C25         -1.1770    -1.2300    -3.4100 ca         1 DCU       0.050000
     25 C26         -0.4430    -2.4890    -1.4900 ca         1 DCU       0.018000
     26 C27         -0.6810    -3.6770    -2.1720 ca         1 DCU      -0.114400
     27 C28         -1.1710    -3.6460    -3.4830 ca         1 DCU       0.098000
     28 C29         -1.4290    -2.4150    -4.1270 ca         1 DCU      -0.263000
     29 C30         -0.8340     2.4420    -2.5880 cp         1 DCU       0.065000
     30 C31          0.1810     2.9720    -3.3660 ca         1 DCU      -0.162000
     31 C32          0.0560     4.2470    -3.8900 ca         1 DCU      -0.105500
     32 C33         -1.0830     4.9920    -3.6370 ca         1 DCU      -0.139000
     33 C34         -2.0960     4.4620    -2.8590 ca         1 DCU      -0.105500
     34 C35         -1.9720     3.1870    -2.3350 ca         1 DCU      -0.162000
     35 N37         -2.0340    -4.2230    -2.1070 nv         1 DCU      -0.794200
     36 H21A        -0.3610    -0.8680     0.5380 h1         1 DCU       0.091200
     37 H22         -0.3610     0.9000     0.4830 h1         1 DCU       0.091200
     38 H31A         1.8910    -0.8700    -0.5340 hc         1 DCU       0.063200
     39 H32A         1.8910     0.8980    -0.4870 hc         1 DCU       0.063200
     40 H41          1.7700     0.9340     1.9200 hc         1 DCU       0.051700
     41 H42          1.5920    -0.8250     1.9830 hc         1 DCU       0.051700
     42 H51          3.9310     0.7380     0.7380 hc         1 DCU       0.051700
     43 H52          3.9300    -0.9810     1.1540 hc         1 DCU       0.051700
     44 H61          3.4890    -0.6870     3.4770 hc         1 DCU       0.050200
     45 H62          3.9970     0.9970     3.2970 hc         1 DCU       0.050200
     46 H71          5.9710     0.7090     2.1500 hc         1 DCU       0.050200
     47 H72          5.9710    -0.9920     2.6350 hc         1 DCU       0.050200
     48 H81          6.0360     0.9970     4.7400 hc         1 DCU       0.051200
     49 H82          5.5290    -0.6880     4.9190 hc         1 DCU       0.051200
     50 H91          8.0120     0.7160     3.5990 hc         1 DCU       0.057700
     51 H92          8.0120    -0.9890     4.0690 hc         1 DCU       0.057700
     52 H101         8.0740     0.9950     6.1830 hc         1 DCU       0.064200
     53 H102         7.5700    -0.6910     6.3600 hc         1 DCU       0.064200
     54 H111        10.0520    -0.9820     5.4820 hx         1 DCU       0.101700
     55 H112        10.0520     0.7360     5.0630 hx         1 DCU       0.101700
     56 H131        10.1750    -2.0790     7.4350 hx         1 DCU       0.100700
     57 H132         8.6190    -1.2840     7.7100 hx         1 DCU       0.100700
     58 H133         9.9160    -1.1260     8.9030 hx         1 DCU       0.100700
     59 H141         9.8250     1.0770     8.9150 hx         1 DCU       0.100700
     60 H142         8.6390     1.3360     7.6280 hx         1 DCU       0.100700
     61 H143        10.2480     2.0630     7.5080 hx         1 DCU       0.100700
     62 H151        12.0110     0.0740     8.1720 hx         1 DCU       0.100700
     63 H152        12.0110    -0.9230     6.7100 hx         1 DCU       0.100700
     64 H153        12.0120     0.8410     6.5780 hx         1 DCU       0.100700
     65 H16         -2.0930    -0.9430    -5.8500 ha         1 DCU       0.157000
     66 H19         -1.2910     3.3300    -3.5460 ha         1 DCU       0.226000
     67 H21         -2.5500     1.1870    -6.9950 ha         1 DCU       0.153000
     68 H26          0.1350    -2.5230    -0.5740 ha         1 DCU       0.155000
     69 H28         -1.3570    -4.5710    -4.0140 ha         1 DCU       0.152000
     70 H29         -1.5940    -2.3750    -5.1970 ha         1 DCU       0.173000
     71 H31          1.1060     2.4240    -3.4960 ha         1 DCU       0.155500
     72 H32          0.8500     4.6620    -4.4990 ha         1 DCU       0.163500
     73 H33         -1.1800     5.9900    -4.0480 ha         1 DCU       0.165000
     74 H34         -2.9880     5.0450    -2.6610 ha         1 DCU       0.163500
     75 H35         -2.7290     2.8070    -1.6590 ha         1 DCU       0.155500
     76 H361        -3.3830     2.6730    -6.9120 hn         1 DCU       0.442300
     77 H362        -3.9170     3.2300    -5.3590 hn         1 DCU       0.442300
     78 H371        -2.1850    -5.2020    -2.2470 hn         1 DCU       0.449300
     79 H372        -2.8010    -3.6290    -1.8580 hn         1 DCU       0.449300
     80 N36         -3.2200     2.7950    -5.9320 nv         1 DCU      -0.932200
@<TRIPOS>BOND
     1     1     2 1
     2     1    22 1
     3     1    36 1
     4     1    37 1
     5     2     3 1
     6     2    38 1
     7     2    39 1
     8     3     4 1
     9     3    40 1
    10     3    41 1
    11     4     5 1
    12     4    42 1
    13     4    43 1
    14     5     6 1
    15     5    44 1
    16     5    45 1
    17     6     7 1
    18     6    46 1
    19     6    47 1
    20     7     8 1
    21     7    48 1
    22     7    49 1
    23     8     9 1
    24     8    50 1
    25     8    51 1
    26     9    10 1
    27     9    52 1
    28     9    53 1
    29    10    11 1
    30    10    54 1
    31    10    55 1
    32    11    12 1
    33    11    13 1
    34    11    14 1
    35    12    56 1
    36    12    57 1
    37    12    58 1
    38    13    59 1
    39    13    60 1
    40    13    61 1
    41    14    62 1
    42    14    63 1
    43    14    64 1
    44    15    16 ar
    45    15    20 ar
    46    15    65 1
    47    16    17 ar
    48    16    24 ar
    49    17    18 ar
    50    17    21 ar
    51    18    19 ar
    52    18    66 1
    53    19    20 ar
    54    19    80 1
    55    20    67 1
    56    21    22 1
    57    21    29 1
    58    22    23 2
    59    23    24 ar
    60    23    25 ar
    61    24    28 ar
    62    25    26 ar
    63    25    68 1
    64    26    27 ar
    65    26    35 1
    66    27    28 ar
    67    27    69 1
    68    28    70 1
    69    29    30 ar
    70    29    34 ar
    71    30    31 ar
    72    30    71 1
    73    31    32 ar
    74    31    72 1
    75    32    33 ar
    76    32    73 1
    77    33    34 ar
    78    33    74 1
    79    34    75 1
    80    80    76 1
    81    80    77 1
    82    35    78 1
    83    35    79 1
@<TRIPOS>SUBSTRUCTURE
     1 DCU         1 TEMP              0 ****  ****    0 ROOT
