@<TRIPOS>MOLECULE
DCV
   32    32     1     0     0
SMALL
bcc


@<TRIPOS>ATOM
      1 C1           0.0000     0.0000     0.0000 c          1 DCV       0.573100
      2 N1           1.3480     0.0000     0.0000 n          1 DCV      -0.011300
      3 O1          -0.6060     0.0000     1.0500 o          1 DCV      -0.625100
      4 Cl1          6.9460    -2.5750     0.2270 cl         1 DCV      -0.108400
      5 C2           2.0800    -0.0070     1.2690 c3         1 DCV       0.014000
      6 O2           2.0560     0.0060    -1.2270 oh         1 DCV      -0.466100
      7 Cl2          8.6380    -0.5820     1.9320 cl         1 DCV      -0.127400
      8 C3           2.0120    -1.4040     1.8890 c3         1 DCV      -0.008400
      9 C4           2.8220    -1.4250     3.1870 c3         1 DCV       0.020400
     10 C5          -0.7530     0.0070    -1.3050 c3         1 DCV      -0.069100
     11 PA1          2.6060    -3.0380     4.0110 p5         1 DCV       0.412700
     12 CAC          4.2810    -1.2150     2.8720 ca         1 DCV       0.070700
     13 CAD          5.0310    -0.3360     3.6300 ca         1 DCV      -0.130000
     14 CAE          4.8690    -1.9030     1.8270 ca         1 DCV      -0.112000
     15 CAF          6.3690    -0.1400     3.3420 ca         1 DCV      -0.103000
     16 CAG          6.2080    -1.7090     1.5380 ca         1 DCV      -0.003600
     17 CAH          6.9580    -0.8260     2.2940 ca         1 DCV      -0.101600
     18 OP1          3.5640    -3.1110     5.3040 o          1 DCV      -0.713833
     19 OP2          1.0720    -3.2050     4.4690 o          1 DCV      -0.713833
     20 OP3          2.9630    -4.1240     3.0720 o          1 DCV      -0.713833
     21 H2           1.6350     0.7120     1.9460 h1         1 DCV       0.022200
     22 H2A          3.1150     0.2580     1.0900 h1         1 DCV       0.022200
     23 HO2          2.4410     0.8560    -1.3640 ho         1 DCV       0.375000
     24 H3           0.9800    -1.6530     2.1040 hc         1 DCV       0.044700
     25 H3A          2.4210    -2.1280     1.1950 hc         1 DCV       0.044700
     26 H4           2.4770    -0.6350     3.8430 hc         1 DCV       0.028700
     27 H5          -0.4650    -0.8560    -1.8920 hc         1 DCV       0.010700
     28 H5A         -1.8180    -0.0290    -1.1070 hc         1 DCV       0.010700
     29 H5B         -0.5180     0.9110    -1.8520 hc         1 DCV       0.010700
     30 HAD          4.5700     0.2010     4.4500 ha         1 DCV       0.105000
     31 HAE          4.2940    -2.6320     1.2670 ha         1 DCV       0.158000
     32 HAF          6.9560     0.5490     3.9370 ha         1 DCV       0.082000
@<TRIPOS>BOND
     1     1     2 1   
     2     1     3 2   
     3     1    10 1   
     4     2     5 1   
     5     2     6 1   
     6     4    16 1   
     7     5     8 1   
     8     5    21 1   
     9     5    22 1   
    10     6    23 1   
    11     7    17 1   
    12     8     9 1   
    13     8    24 1   
    14     8    25 1   
    15     9    11 1   
    16     9    12 1   
    17     9    26 1   
    18    10    27 1   
    19    10    28 1   
    20    10    29 1   
    21    11    18 1   
    22    11    19 1   
    23    11    20 1   
    24    12    13 ar  
    25    12    14 ar  
    26    13    15 ar  
    27    13    30 1   
    28    14    16 ar  
    29    14    31 1   
    30    15    17 ar  
    31    15    32 1   
    32    16    17 ar  
@<TRIPOS>SUBSTRUCTURE
     1 DCV         1 TEMP              0 ****  ****    0 ROOT
