@<TRIPOS>MOLECULE
molecule
   40    41     1     0     0
SMALL
bcc


@<TRIPOS>ATOM
      1 N1           0.0000     0.0000     0.0000 ns         1 DCW      -0.602900
      2 O1          -0.0670     0.9390    -2.0110 o          1 DCW      -0.664100
      3 C1          -0.6750     0.4930    -1.0570 c          1 DCW       0.781100
      4 C2           1.4650     0.0000     0.0000 c3         1 DCW       0.135700
      5 N2          -2.0220     0.4930    -1.0560 ns         1 DCW      -0.602900
      6 C3           1.9760     0.0000     1.4420 c3         1 DCW      -0.094900
      7 C7           1.9750    -1.2490    -0.7220 c3         1 DCW      -0.094900
      8 C4           3.5060     0.0000     1.4410 c3         1 DCW      -0.076900
      9 C5           4.0160    -1.2490     0.7190 c3         1 DCW      -0.083400
     10 C6           3.5050    -1.2480    -0.7230 c3         1 DCW      -0.076900
     11 C8          -2.7560     1.0300    -2.2060 c3         1 DCW       0.135700
     12 C9          -4.1420     0.3870    -2.2700 c3         1 DCW      -0.094900
     13 C13         -2.9020     2.5450    -2.0560 c3         1 DCW      -0.094900
     14 C10         -4.9090     0.9470    -3.4710 c3         1 DCW      -0.076900
     15 C11         -5.0540     2.4630    -3.3210 c3         1 DCW      -0.083400
     16 C12         -3.6670     3.1050    -3.2560 c3         1 DCW      -0.076900
     17 H1          -0.5000    -0.3620     0.7880 hn         1 DCW       0.303500
     18 H2           1.8310     0.8830    -0.5100 h1         1 DCW       0.082200
     19 HA          -2.5220     0.1060    -0.2800 hn         1 DCW       0.303500
     20 H31C         1.6160    -0.8860     1.9510 hc         1 DCW       0.047200
     21 H32C         1.6160     0.8860     1.9510 hc         1 DCW       0.047200
     22 H71C         1.6160    -2.1330    -0.2090 hc         1 DCW       0.047200
     23 H72C         1.6150    -1.2460    -1.7430 hc         1 DCW       0.047200
     24 H8          -2.2150     0.8100    -3.1190 h1         1 DCW       0.082200
     25 H41C         3.8670    -0.0030     2.4630 hc         1 DCW       0.044700
     26 H42C         3.8660     0.8840     0.9280 hc         1 DCW       0.044700
     27 H61C         3.8640    -0.3620    -1.2320 hc         1 DCW       0.044700
     28 H62C         3.8640    -2.1340    -1.2320 hc         1 DCW       0.044700
     29 H51C         3.6530    -2.1330     1.2300 hc         1 DCW       0.041200
     30 H52C         5.0990    -1.2460     0.7170 hc         1 DCW       0.041200
     31 H91C        -4.0370    -0.6850    -2.3790 hc         1 DCW       0.047200
     32 H92C        -4.6860     0.6120    -1.3600 hc         1 DCW       0.047200
     33 H131        -3.4470     2.7660    -1.1460 hc         1 DCW       0.047200
     34 H132        -1.9190     2.9990    -2.0120 hc         1 DCW       0.047200
     35 H101        -4.3630     0.7270    -4.3810 hc         1 DCW       0.044700
     36 H102        -5.8920     0.4940    -3.5140 hc         1 DCW       0.044700
     37 H121        -3.7710     4.1780    -3.1480 hc         1 DCW       0.044700
     38 H122        -3.1240     2.8800    -4.1660 hc         1 DCW       0.044700
     39 H111        -5.5960     2.6840    -2.4080 hc         1 DCW       0.041200
     40 H112        -5.5950     2.8590    -4.1720 hc         1 DCW       0.041200
@<TRIPOS>BOND
     1     1     3 1
     2     1     4 1
     3     2     3 2
     4     3     5 1
     5     4     6 1
     6     4     7 1
     7     5    11 1
     8     6     8 1
     9     7    10 1
    10     8     9 1
    11     9    10 1
    12    11    12 1
    13    11    13 1
    14    12    14 1
    15    13    16 1
    16    14    15 1
    17    15    16 1
    18     1    17 1
    19     4    18 1
    20     5    19 1
    21     6    20 1
    22     6    21 1
    23     7    22 1
    24     7    23 1
    25    11    24 1
    26     8    25 1
    27     8    26 1
    28    10    27 1
    29    10    28 1
    30     9    29 1
    31     9    30 1
    32    12    31 1
    33    12    32 1
    34    13    33 1
    35    13    34 1
    36    14    35 1
    37    14    36 1
    38    16    37 1
    39    16    38 1
    40    15    39 1
    41    15    40 1
@<TRIPOS>SUBSTRUCTURE
     1 DCW         1 TEMP              0 ****  ****    0 ROOT
