@<TRIPOS>MOLECULE
molecule
   41    40     1     0     0
SMALL
bcc


@<TRIPOS>ATOM
      1 C3           0.0000     0.0000     0.0000 c3         1 DCX      -0.298300
      2 O4           2.3160    -1.2090    -0.6970 o          1 DCX      -0.776300
      3 C6           3.9550     1.4260    -0.9680 c3         1 DCX      -0.057400
      4 C14         12.0960     6.1780    -4.2910 c3         1 DCX      -0.092100
      5 C13         10.5710     6.2390    -4.1810 c3         1 DCX      -0.084400
      6 C12         10.0610     4.9890    -3.4600 c3         1 DCX      -0.081400
      7 C11          8.5360     5.0510    -3.3510 c3         1 DCX      -0.082400
      8 C10          8.0260     3.8020    -2.6300 c3         1 DCX      -0.082400
      9 C9           6.5000     3.8630    -2.5210 c3         1 DCX      -0.081400
     10 C8           5.9900     2.6150    -1.7990 c3         1 DCX      -0.082400
     11 C7           4.4660     2.6760    -1.6900 c3         1 DCX      -0.075400
     12 C4           2.4300     1.4880    -0.8590 c3         1 DCX      -0.277600
     13 P1           1.8230     0.0000     0.0000 p5         1 DCX       0.983900
     14 C2           2.4300     0.0000     1.7190 c3         1 DCX      -0.298300
     15 H31         -0.3610    -0.9040     0.4750 hc         1 DCX       0.076200
     16 H32         -0.3610     0.0410    -1.0210 hc         1 DCX       0.076200
     17 H33         -0.3610     0.8630     0.5460 hc         1 DCX       0.076200
     18 H61          4.2420     0.5440    -1.5270 hc         1 DCX       0.052700
     19 H62          4.3870     1.3810     0.0250 hc         1 DCX       0.052700
     20 H141        12.4570     7.0620    -4.8020 hc         1 DCX       0.032367
     21 H142        12.3830     5.2960    -4.8510 hc         1 DCX       0.032367
     22 H143        12.5280     6.1320    -3.2990 hc         1 DCX       0.032367
     23 H131        10.1390     6.2850    -5.1740 hc         1 DCX       0.039700
     24 H132        10.2840     7.1210    -3.6210 hc         1 DCX       0.039700
     25 H121        10.4930     4.9430    -2.4680 hc         1 DCX       0.041200
     26 H122        10.3470     4.1070    -4.0200 hc         1 DCX       0.041200
     27 H111         8.1040     5.0970    -4.3440 hc         1 DCX       0.040700
     28 H112         8.2500     5.9330    -2.7910 hc         1 DCX       0.040700
     29 H101         8.3130     2.9200    -3.1900 hc         1 DCX       0.041700
     30 H102         8.4580     3.7560    -1.6380 hc         1 DCX       0.041700
     31 H91          6.0690     3.9090    -3.5130 hc         1 DCX       0.040700
     32 H92          6.2140     4.7460    -1.9620 hc         1 DCX       0.040700
     33 H81          6.4220     2.5700    -0.8060 hc         1 DCX       0.043200
     34 H82          6.2780     1.7320    -2.3580 hc         1 DCX       0.043200
     35 H71          4.1790     3.5580    -1.1310 hc         1 DCX       0.041200
     36 H72          4.0350     2.7210    -2.6830 hc         1 DCX       0.041200
     37 H41          2.1440     2.3710    -0.2990 hc         1 DCX       0.073200
     38 H42          1.9990     1.5340    -1.8510 hc         1 DCX       0.073200
     39 H21          3.4490    -0.3650     1.7420 hc         1 DCX       0.076200
     40 H22          1.8020    -0.6430     2.3240 hc         1 DCX       0.076200
     41 H23          2.3990     1.0090     2.1130 hc         1 DCX       0.076200
@<TRIPOS>BOND
     1     1    13 1
     2     1    15 1
     3     1    16 1
     4     1    17 1
     5     2    13 2
     6     3    11 1
     7     3    12 1
     8     3    18 1
     9     3    19 1
    10     4     5 1
    11     4    20 1
    12     4    21 1
    13     4    22 1
    14     5     6 1
    15     5    23 1
    16     5    24 1
    17     6     7 1
    18     6    25 1
    19     6    26 1
    20     7     8 1
    21     7    27 1
    22     7    28 1
    23     8     9 1
    24     8    29 1
    25     8    30 1
    26     9    10 1
    27     9    31 1
    28     9    32 1
    29    10    11 1
    30    10    33 1
    31    10    34 1
    32    11    35 1
    33    11    36 1
    34    12    13 1
    35    12    37 1
    36    12    38 1
    37    13    14 1
    38    14    39 1
    39    14    40 1
    40    14    41 1
@<TRIPOS>SUBSTRUCTURE
     1 DCX         1 TEMP              0 ****  ****    0 ROOT
