@<TRIPOS>MOLECULE
DCX
   41    40     1     0     0
SMALL
bcc


@<TRIPOS>ATOM
      1 C3          0.3390    0.0190   -0.1950 c3        1 DCX     -0.460300
      2 O4          2.6200   -1.1570   -0.6600 o         1 DCX     -0.893300
      3 C6          3.9370    1.4240   -0.8940 c3        1 DCX     -0.070400
      4 C14        12.0390    6.1290   -4.3630 c3        1 DCX     -0.092100
      5 C13        10.5440    6.1900   -4.1830 c3        1 DCX     -0.080400
      6 C12        10.0170    4.9500   -3.4930 c3        1 DCX     -0.079400
      7 C11         8.5160    5.0160   -3.3130 c3        1 DCX     -0.078400
      8 C10         7.9900    3.7750   -2.6240 c3        1 DCX     -0.079400
      9 C9          6.4890    3.8420   -2.4420 c3        1 DCX     -0.078400
     10 C8          5.9630    2.5990   -1.7560 c3        1 DCX     -0.080400
     11 C7          4.4620    2.6680   -1.5700 c3        1 DCX     -0.071400
     12 C4          2.4450    1.4660   -0.6790 c3        1 DCX     -0.432600
     13 P1          1.9820    0.0090   -0.0480 p5        1 DCX      1.435900
     14 C2          2.2390    0.1400    1.5760 c3        1 DCX     -0.460300
     15 H31        -0.1420    0.9720    0.1270 hc        1 DCX      0.093533
     16 H32        -0.1420   -0.7940    0.4030 hc        1 DCX      0.093533
     17 H33         0.0160   -0.1570   -1.2510 hc        1 DCX      0.093533
     18 H61         4.1820    0.5130   -1.5100 hc        1 DCX      0.059700
     19 H62         4.4380    1.2920    0.1020 hc        1 DCX      0.059700
     20 H141       12.3260    5.2450   -4.9830 hc        1 DCX      0.032700
     21 H142       12.4070    7.0520   -4.8730 hc        1 DCX      0.032700
     22 H143       12.5530    6.0440   -3.3750 hc        1 DCX      0.032700
     23 H131       10.0480    6.3000   -5.1830 hc        1 DCX      0.038200
     24 H132       10.2740    7.0970   -3.5800 hc        1 DCX      0.038200
     25 H121       10.5120    4.8380   -2.4920 hc        1 DCX      0.040200
     26 H122       10.2840    4.0430   -4.0960 hc        1 DCX      0.040200
     27 H111        8.0220    5.1290   -4.3140 hc        1 DCX      0.039200
     28 H112        8.2490    5.9230   -2.7090 hc        1 DCX      0.039200
     29 H101        8.4850    3.6610   -1.6240 hc        1 DCX      0.040700
     30 H102        8.2550    2.8680   -3.2290 hc        1 DCX      0.040700
     31 H91         5.9940    3.9570   -3.4420 hc        1 DCX      0.038700
     32 H92         6.2230    4.7480   -1.8360 hc        1 DCX      0.038700
     33 H81         6.2250    1.6930   -2.3640 hc        1 DCX      0.043200
     34 H82         6.4610    2.4820   -0.7570 hc        1 DCX      0.043200
     35 H71         3.9650    2.7900   -2.5690 hc        1 DCX      0.038700
     36 H72         4.1990    3.5710   -0.9580 hc        1 DCX      0.038700
     37 H41         1.9470    1.6750   -1.6620 hc        1 DCX      0.092700
     38 H42         2.1870    2.3410   -0.0320 hc        1 DCX      0.092700
     39 H21         3.3110    0.3430    1.8210 hc        1 DCX      0.093533
     40 H22         1.6470    0.9480    2.0670 hc        1 DCX      0.093533
     41 H23         1.9840   -0.8080    2.1110 hc        1 DCX      0.093533
@<TRIPOS>BOND
     1    1   13 1   
     2    1   15 1   
     3    1   16 1   
     4    1   17 1   
     5    2   13 2   
     6    3   11 1   
     7    3   12 1   
     8    3   18 1   
     9    3   19 1   
    10    4    5 1   
    11    4   20 1   
    12    4   21 1   
    13    4   22 1   
    14    5    6 1   
    15    5   23 1   
    16    5   24 1   
    17    6    7 1   
    18    6   25 1   
    19    6   26 1   
    20    7    8 1   
    21    7   27 1   
    22    7   28 1   
    23    8    9 1   
    24    8   29 1   
    25    8   30 1   
    26    9   10 1   
    27    9   31 1   
    28    9   32 1   
    29   10   11 1   
    30   10   33 1   
    31   10   34 1   
    32   11   35 1   
    33   11   36 1   
    34   12   13 1   
    35   12   37 1   
    36   12   38 1   
    37   13   14 1   
    38   14   39 1   
    39   14   40 1   
    40   14   41 1   
@<TRIPOS>SUBSTRUCTURE
     1 DCX         1 TEMP              0 ****  ****    0 ROOT
