@<TRIPOS>MOLECULE
DCZ
   30    31     1     0     0
SMALL
bcc


@<TRIPOS>ATOM
      1 N1         -0.0800    0.4350   -0.2960 n         1 DCZ     -0.347000
      2 C2          1.3610    0.4860   -0.3380 c         1 DCZ      0.842900
      3 N3          2.1050    0.0700    0.8110 nc        1 DCZ     -0.622100
      4 C4          1.4400   -0.3840    1.8510 cd        1 DCZ      0.610500
      5 C5          0.0110   -0.4720    1.9460 cd        1 DCZ     -0.441600
      6 C6         -0.6900   -0.0720    0.8170 cc        1 DCZ      0.134600
      7 O2          1.9700    0.8990   -1.3330 o         1 DCZ     -0.533500
      8 N4          2.2350   -0.8580    3.0170 n4        1 DCZ     -0.803600
      9 C1'        -0.9300    0.6620   -1.4930 c3        1 DCZ      0.297500
     10 C2'        -0.3860    1.6350   -2.5520 c3        1 DCZ     -0.141400
     11 C3'         0.1090    0.7390   -3.7020 c3        1 DCZ      0.129100
     12 C4'        -0.3410   -0.6900   -3.3280 c3        1 DCZ      0.087100
     13 O4'        -1.1580   -0.5830   -2.1460 os        1 DCZ     -0.407600
     14 O3'        -0.5330    1.0680   -4.9180 oh        1 DCZ     -0.583800
     15 C5'         0.8320   -1.6300   -3.0400 c3        1 DCZ      0.105400
     16 O5'         0.5970   -2.3970   -1.8760 oh        1 DCZ     -0.608800
     17 H5         -0.5130   -0.8460    2.8310 ha        1 DCZ      0.183000
     18 H6         -1.7990   -0.1510    0.7960 h4        1 DCZ      0.199000
     19 HN41        1.9330   -0.3420    3.8510 hn        1 DCZ      0.478133
     20 HN42        3.2440   -0.7110    2.8680 hn        1 DCZ      0.478133
     21 H1'        -1.9400    0.9920   -1.1030 h2        1 DCZ      0.104700
     22 H2'1        0.4230    2.3040   -2.1740 hc        1 DCZ      0.095700
     23 H2'2       -1.2370    2.2740   -2.9060 hc        1 DCZ      0.095700
     24 H3'         1.2250    0.8060   -3.8050 h1        1 DCZ      0.078700
     25 H4'        -1.0280   -1.1150   -4.1110 h1        1 DCZ      0.116700
     26 HO3'       -0.0950    1.8530   -5.2700 ho        1 DCZ      0.420000
     27 H5'1        1.7750   -1.0600   -2.8110 h1        1 DCZ      0.069700
     28 H5'2        1.0030   -2.2980   -3.9250 h1        1 DCZ      0.069700
     29 HO51       -0.2340   -2.8710   -2.0070 ho        1 DCZ      0.413000
     30 H43         2.0530   -1.8600    3.1450 hn        1 DCZ      0.478133
@<TRIPOS>BOND
     1    1    2 1   
     2    1    6 1   
     3    1    9 1   
     4    2    3 1   
     5    2    7 2   
     6    3    4 2   
     7    4    5 1   
     8    4    8 1   
     9    5    6 2   
    10    5   17 1   
    11    6   18 1   
    12    8   19 1   
    13    8   20 1   
    14    8   30 1   
    15    9   10 1   
    16    9   13 1   
    17    9   21 1   
    18   10   11 1   
    19   10   22 1   
    20   10   23 1   
    21   11   12 1   
    22   11   14 1   
    23   11   24 1   
    24   12   13 1   
    25   12   15 1   
    26   12   25 1   
    27   14   26 1   
    28   15   16 1   
    29   15   27 1   
    30   15   28 1   
    31   16   29 1   
@<TRIPOS>SUBSTRUCTURE
     1 DCZ         1 TEMP              0 ****  ****    0 ROOT
