@<TRIPOS>MOLECULE
DD1
   52    55     1     0     0
SMALL
bcc


@<TRIPOS>ATOM
      1 F58          0.0000     0.0000     0.0000 f          1 DD1      -0.129900
      2 C1           1.3510     0.0000     0.0000 ca         1 DD1       0.104900
      3 C6           2.0440     0.0000     1.1990 ca         1 DD1      -0.130000
      4 C5           3.4260    -0.0000     1.1970 ca         1 DD1      -0.076000
      5 C4           4.1170    -0.0020    -0.0010 ca         1 DD1      -0.111000
      6 C3           3.4260    -0.0020    -1.1980 ca         1 DD1      -0.058000
      7 C2           2.0440    -0.0070    -1.1990 ca         1 DD1      -0.115300
      8 C13          1.2910    -0.0130    -2.5040 c3         1 DD1       0.214100
      9 N15          0.8390     1.3490    -2.8150 n3         1 DD1      -0.535600
     10 C21          0.3120     1.4300    -4.1840 c3         1 DD1       0.139300
     11 C20         -0.0130     2.8860    -4.5220 c3         1 DD1      -0.019900
     12 C19         -1.0460     3.4190    -3.5250 c3         1 DD1      -0.059700
     13 C18         -0.4920     3.2790    -2.1040 c3         1 DD1      -0.019900
     14 C17         -0.1530     1.8120    -1.8360 c3         1 DD1       0.139300
     15 C28         -1.3300     4.8930    -3.8210 c3         1 DD1       0.198400
     16 O30         -2.3770     5.3570    -2.9660 os         1 DD1      -0.290900
     17 C32         -2.7530     6.6530    -3.1010 ca         1 DD1       0.204100
     18 C38         -3.7750     7.1840    -2.2990 ca         1 DD1      -0.317600
     19 C45         -4.4470     6.4030    -1.3280 ca         1 DD1       0.585200
     20 N54         -4.1180     5.0780    -1.1360 nv         1 DD1      -0.646500
     21 N46         -5.4010     6.9780    -0.6090 nb         1 DD1      -0.666000
     22 C47         -5.7280     8.2550    -0.7840 ca         1 DD1       0.731900
     23 N56         -6.7320     8.7960    -0.0020 nv         1 DD1      -0.643500
     24 N48         -5.1340     9.0280    -1.6740 nb         1 DD1      -0.634000
     25 C37         -4.1550     8.5390    -2.4520 ca         1 DD1       0.442600
     26 C36         -3.5050     9.3330    -3.4050 ca         1 DD1      -0.204300
     27 C35         -2.5150     8.7950    -4.1750 ca         1 DD1      -0.027000
     28 C34         -2.1310     7.4680    -4.0270 ca         1 DD1      -0.245000
     29 H6           1.5040     0.0010     2.1370 ha         1 DD1       0.119000
     30 H5           3.9690    -0.0000     2.1350 ha         1 DD1       0.107000
     31 H4           5.2000    -0.0000    -0.0010 ha         1 DD1       0.107000
     32 H3           3.9680    -0.0060    -2.1360 ha         1 DD1       0.111000
     33 H13          0.4320    -0.6690    -2.4230 h1         1 DD1       0.016700
     34 H13A         1.9420    -0.3670    -3.2950 h1         1 DD1       0.016700
     35 H21         -0.5900     0.8340    -4.2580 h1         1 DD1       0.017700
     36 H21A         1.0550     1.0570    -4.8780 h1         1 DD1       0.017700
     37 H20         -0.4180     2.9410    -5.5250 hc         1 DD1       0.024200
     38 H20A         0.8900     3.4810    -4.4580 hc         1 DD1       0.024200
     39 H19         -1.9610     2.8450    -3.6130 hc         1 DD1       0.036700
     40 H18          0.4050     3.8800    -2.0060 hc         1 DD1       0.024200
     41 H18A        -1.2370     3.6130    -1.3920 hc         1 DD1       0.024200
     42 H17         -1.0520     1.2140    -1.9250 h1         1 DD1       0.017700
     43 H17A         0.2550     1.7140    -0.8370 h1         1 DD1       0.017700
     44 H28         -1.6320     5.0030    -4.8550 h1         1 DD1       0.007200
     45 H28A        -0.4340     5.4760    -3.6430 h1         1 DD1       0.007200
     46 HN54        -4.5530     4.3690    -1.6930 hn         1 DD1       0.284300
     47 HN5A        -3.4930     4.8200    -0.3980 hn         1 DD1       0.284300
     48 HN56        -7.6840     8.7480    -0.3060 hn         1 DD1       0.278800
     49 HN5B        -6.5070     9.2300     0.8710 hn         1 DD1       0.278800
     50 H36         -3.7920    10.3690    -3.5350 ha         1 DD1       0.123000
     51 H35         -2.0140     9.4160    -4.9080 ha         1 DD1       0.100000
     52 H34         -1.3420     7.0650    -4.6510 ha         1 DD1       0.124000
@<TRIPOS>BOND
     1     1     2 1   
     2     2     3 ar  
     3     2     7 ar  
     4     3     4 ar  
     5     3    29 1   
     6     4     5 ar  
     7     4    30 1   
     8     5     6 ar  
     9     5    31 1   
    10     6     7 ar  
    11     6    32 1   
    12     7     8 1   
    13     8     9 1   
    14     8    33 1   
    15     8    34 1   
    16     9    10 1   
    17     9    14 1   
    18    10    11 1   
    19    10    35 1   
    20    10    36 1   
    21    11    12 1   
    22    11    37 1   
    23    11    38 1   
    24    12    13 1   
    25    12    15 1   
    26    12    39 1   
    27    13    14 1   
    28    13    40 1   
    29    13    41 1   
    30    14    42 1   
    31    14    43 1   
    32    15    16 1   
    33    15    44 1   
    34    15    45 1   
    35    16    17 1   
    36    17    18 ar  
    37    17    28 ar  
    38    18    19 ar  
    39    18    25 ar  
    40    19    20 1   
    41    19    21 ar  
    42    20    46 1   
    43    20    47 1   
    44    21    22 ar  
    45    22    23 1   
    46    22    24 ar  
    47    23    48 1   
    48    23    49 1   
    49    24    25 ar  
    50    25    26 ar  
    51    26    27 ar  
    52    26    50 1   
    53    27    28 ar  
    54    27    51 1   
    55    28    52 1   
@<TRIPOS>SUBSTRUCTURE
     1 DD1         1 TEMP              0 ****  ****    0 ROOT
