@<TRIPOS>MOLECULE
DD2
   52    55     1     0     0
SMALL
bcc


@<TRIPOS>ATOM
      1 C1           0.0000     0.0000     0.0000 ca         1 DD2      -0.018600
      2 C2           1.3830     0.0000     0.0000 ca         1 DD2      -0.079300
      3 C3           2.0750     0.0000     1.1960 ca         1 DD2      -0.092000
      4 C4           1.3850    -0.0020     2.3950 ca         1 DD2      -0.092000
      5 C5           0.0020    -0.0020     2.3970 ca         1 DD2      -0.090000
      6 C6          -0.6910    -0.0020     1.2000 ca         1 DD2      -0.040600
      7 C9           2.1360     0.0020    -1.3060 c3         1 DD2       0.205100
      8 C11          2.4800    -1.3090    -3.3120 c3         1 DD2       0.151800
      9 C14          2.7690    -3.6900    -1.6890 c3         1 DD2      -0.021900
     10 C15          2.9460    -2.2730    -1.1390 c3         1 DD2       0.151800
     11 O17          3.3900    -5.1560    -5.0920 os         1 DD2      -0.292900
     12 C18          3.2560    -6.3370    -5.7480 ca         1 DD2       0.203100
     13 C19          2.6900    -7.4270    -5.1170 ca         1 DD2      -0.244000
     14 C20          2.5510    -8.6380    -5.7840 ca         1 DD2      -0.028000
     15 C21          2.9670    -8.7840    -7.0750 ca         1 DD2      -0.203300
     16 C22          3.5450    -7.6990    -7.7490 ca         1 DD2       0.442600
     17 C24          4.2690    -5.3800    -7.7830 ca         1 DD2       0.583200
     18 C26          4.5070    -6.7610    -9.6270 ca         1 DD2       0.730900
     19 Cl8         -0.8700     0.0080    -1.5030 cl         1 DD2       0.008600
     20 Cl7         -2.4280    -0.0020     1.2030 cl         1 DD2      -0.005400
     21 N10          2.0970    -1.3440    -1.8950 n3         1 DD2      -0.532600
     22 C13          3.1540    -3.7080    -3.1710 c3         1 DD2      -0.058700
     23 C12          2.2890    -2.6980    -3.9270 c3         1 DD2      -0.021900
     24 C16          2.9210    -5.1090    -3.7420 c3         1 DD2       0.198400
     25 C23          3.6870    -6.4600    -7.0790 ca         1 DD2      -0.316600
     26 N29          4.4360    -4.1520    -7.1780 nv         1 DD2      -0.646500
     27 N25          4.6490    -5.5770    -9.0370 nb         1 DD2      -0.665000
     28 N28          4.9240    -6.9030   -10.9370 nv         1 DD2      -0.643500
     29 N27          3.9670    -7.8000    -9.0190 nb         1 DD2      -0.632000
     30 H3           3.1580     0.0000     1.1960 ha         1 DD2       0.109000
     31 H4           1.9270    -0.0020     3.3320 ha         1 DD2       0.108000
     32 H5          -0.5390    -0.0040     3.3350 ha         1 DD2       0.117000
     33 H9           1.6760     0.7080    -1.9870 h1         1 DD2       0.019200
     34 H9A          3.1650     0.2900    -1.1290 h1         1 DD2       0.019200
     35 H11          3.5200    -1.0180    -3.3970 h1         1 DD2       0.011450
     36 H11A         1.8560    -0.5950    -3.8360 h1         1 DD2       0.011450
     37 H14          1.7350    -3.9920    -1.5810 hc         1 DD2       0.025450
     38 H14A         3.4090    -4.3720    -1.1420 hc         1 DD2       0.025450
     39 H15          2.6590    -2.2540    -0.0940 h1         1 DD2       0.011450
     40 H15A         3.9830    -1.9750    -1.2390 h1         1 DD2       0.011450
     41 H19          2.3520    -7.3370    -4.0920 ha         1 DD2       0.124000
     42 H20          2.1040    -9.4800    -5.2690 ha         1 DD2       0.101000
     43 H21          2.8500    -9.7360    -7.5790 ha         1 DD2       0.123000
     44 H13          4.1980    -3.4380    -3.2760 hc         1 DD2       0.035700
     45 H12          2.5870    -2.6750    -4.9680 hc         1 DD2       0.025450
     46 H12A         1.2470    -2.9860    -3.8500 hc         1 DD2       0.025450
     47 H16          1.8630    -5.3370    -3.7190 h1         1 DD2       0.008700
     48 H16A         3.4600    -5.8360    -3.1470 h1         1 DD2       0.008700
     49 HN29         3.7640    -3.4250    -7.3280 hn         1 DD2       0.283800
     50 HN2A         5.2610    -3.9670    -6.6430 hn         1 DD2       0.283800
     51 HN28         4.2880    -6.7170   -11.6870 hn         1 DD2       0.279300
     52 HN2B         5.8640    -7.1850   -11.1360 hn         1 DD2       0.279300
@<TRIPOS>BOND
     1     1     2 ar  
     2     1     6 ar  
     3     1    19 1   
     4     2     3 ar  
     5     2     7 1   
     6     3     4 ar  
     7     3    30 1   
     8     4     5 ar  
     9     4    31 1   
    10     5     6 ar  
    11     5    32 1   
    12     6    20 1   
    13     7    21 1   
    14     7    33 1   
    15     7    34 1   
    16     8    21 1   
    17     8    23 1   
    18     8    35 1   
    19     8    36 1   
    20     9    10 1   
    21     9    22 1   
    22     9    37 1   
    23     9    38 1   
    24    10    21 1   
    25    10    39 1   
    26    10    40 1   
    27    11    12 1   
    28    11    24 1   
    29    12    13 ar  
    30    12    25 ar  
    31    13    14 ar  
    32    13    41 1   
    33    14    15 ar  
    34    14    42 1   
    35    15    16 ar  
    36    15    43 1   
    37    16    25 ar  
    38    16    29 ar  
    39    17    25 ar  
    40    17    26 1   
    41    17    27 ar  
    42    18    27 ar  
    43    18    28 1   
    44    18    29 ar  
    45    22    23 1   
    46    22    24 1   
    47    22    44 1   
    48    23    45 1   
    49    23    46 1   
    50    24    47 1   
    51    24    48 1   
    52    26    49 1   
    53    26    50 1   
    54    28    51 1   
    55    28    52 1   
@<TRIPOS>SUBSTRUCTURE
     1 DD2         1 TEMP              0 ****  ****    0 ROOT
