@<TRIPOS>MOLECULE
DD3
   37    39     1     0     0
SMALL
bcc


@<TRIPOS>ATOM
      1 C14          0.0000     0.0000     0.0000 ca         1 DD3      -0.093300
      2 C13         -1.1180     1.4380    -1.6830 c3         1 DD3      -0.034100
      3 C12         -0.7530     0.0010    -1.3060 c3         1 DD3       0.219400
      4 C17          1.3820    -0.0010     2.3960 ca         1 DD3      -0.094000
      5 C16          2.0740     0.0000     1.1980 ca         1 DD3      -0.034600
      6 C15          1.3820     0.0000     0.0000 ca         1 DD3      -0.089000
      7 N3          -5.2210    -3.3380    -1.0170 nb         1 DD3      -0.661000
      8 C10         -2.4630    -1.3160    -2.2970 ca         1 DD3       0.203100
      9 C8          -2.4320    -1.5820    -4.6900 ca         1 DD3      -0.027000
     10 C7          -3.5040    -2.4240    -4.6470 ca         1 DD3      -0.201300
     11 C5          -3.5680    -2.1810    -2.2280 ca         1 DD3      -0.316600
     12 C4          -4.1820    -2.5150    -0.9980 ca         1 DD3       0.584200
     13 C19         -0.6910     0.0050     1.1970 ca         1 DD3      -0.080000
     14 C9          -1.9080    -1.0280    -3.5280 ca         1 DD3      -0.248000
     15 Cl2          3.8100    -0.0060     1.1990 cl         1 DD3      -0.023400
     16 C18         -0.0010     0.0050     2.3940 ca         1 DD3      -0.091000
     17 O11         -1.9470    -0.7710    -1.1660 os         1 DD3      -0.286900
     18 C6          -4.0940    -2.7400    -3.4180 ca         1 DD3       0.442600
     19 N1          -5.1510    -3.5630    -3.3310 nb         1 DD3      -0.633000
     20 N22         -3.7120    -2.0000     0.1900 nv         1 DD3      -0.650500
     21 C2          -5.6850    -3.8430    -2.1580 ca         1 DD3       0.731900
     22 N21         -6.7730    -4.6960    -2.1110 nv         1 DD3      -0.644500
     23 H13A        -0.7330     1.6610    -2.6710 hc         1 DD3       0.018700
     24 H13B        -2.1950     1.5500    -1.6820 hc         1 DD3       0.018700
     25 H12         -0.1320    -0.4300    -2.0820 h1         1 DD3       0.030700
     26 H17          1.9230    -0.0010     3.3340 ha         1 DD3       0.116000
     27 H15          1.9240     0.0010    -0.9380 ha         1 DD3       0.116000
     28 H8          -1.9800    -1.3410    -5.6450 ha         1 DD3       0.101000
     29 H7          -3.8990    -2.8460    -5.5630 ha         1 DD3       0.124000
     30 H19         -1.7750     0.0100     1.1970 ha         1 DD3       0.117000
     31 H9          -1.0560    -0.3620    -3.5880 ha         1 DD3       0.128000
     32 H18         -0.5430     0.0070     3.3320 ha         1 DD3       0.108000
     33 HN22        -3.0240    -2.5020     0.7160 hn         1 DD3       0.284300
     34 HN2A        -4.1050    -1.1560     0.5590 hn         1 DD3       0.284300
     35 HN21        -6.6320    -5.6830    -2.0210 hn         1 DD3       0.279800
     36 HN2B        -7.7010    -4.3280    -2.1870 hn         1 DD3       0.279800
     37 H13         -0.6830     2.1220    -0.9640 hc         1 DD3       0.018700
@<TRIPOS>BOND
     1     1     3 1   
     2     1     6 ar  
     3     1    13 ar  
     4     2     3 1   
     5     2    23 1   
     6     2    24 1   
     7     2    37 1   
     8     3    17 1   
     9     3    25 1   
    10     4     5 ar  
    11     4    16 ar  
    12     4    26 1   
    13     5     6 ar  
    14     5    15 1   
    15     6    27 1   
    16     7    12 ar  
    17     7    21 ar  
    18     8    11 ar  
    19     8    14 ar  
    20     8    17 1   
    21     9    10 ar  
    22     9    14 ar  
    23     9    28 1   
    24    10    18 ar  
    25    10    29 1   
    26    11    12 ar  
    27    11    18 ar  
    28    12    20 1   
    29    13    16 ar  
    30    13    30 1   
    31    14    31 1   
    32    16    32 1   
    33    18    19 ar  
    34    19    21 ar  
    35    20    33 1   
    36    20    34 1   
    37    21    22 1   
    38    22    35 1   
    39    22    36 1   
@<TRIPOS>SUBSTRUCTURE
     1 DD3         1 TEMP              0 ****  ****    0 ROOT
