@<TRIPOS>MOLECULE
molecule
   60    63     1     0     0
SMALL
bcc


@<TRIPOS>ATOM
      1 C10          0.0000     0.0000     0.0000 ca         1 DD5      -0.098500
      2 C13         -0.7430     0.0010    -1.2850 cc         1 DD5       0.400800
      3 C15         -0.2130     1.1800    -5.3040 c3         1 DD5       0.135100
      4 C17          0.8400     2.4630    -8.6550 c3         1 DD5       0.122300
      5 C20          2.3150     1.9700    -6.8010 c3         1 DD5       0.122300
      6 C21         -2.4210     0.0070    -2.7550 cd         1 DD5      -0.098300
      7 C22         -2.1440     0.0080    -1.4330 cc         1 DD5      -0.340300
      8 C01          1.2780     0.0000     4.7800 c3         1 DD5       0.577700
      9 C02          1.3820    -0.0000     2.4040 ca         1 DD5       0.095100
     10 C03          2.0820     0.0000     1.2010 ca         1 DD5       0.129100
     11 O02          3.4410    -0.0020     1.2040 os         1 DD5      -0.310900
     12 C04          4.0930    -0.1200    -0.0620 c3         1 DD5       0.133100
     13 C05          5.5120    -0.7040     0.1130 c3         1 DD5      -0.093900
     14 C06          6.4140     0.0260    -0.8970 c3         1 DD5      -0.083400
     15 C07          5.5150     1.0260    -1.6500 c3         1 DD5      -0.083400
     16 C08          4.3330     1.2800    -0.6810 c3         1 DD5      -0.093900
     17 C09          1.3930     0.0000     0.0000 ca         1 DD5      -0.175000
     18 C11         -0.6950     0.0070     1.2070 ca         1 DD5      -0.113000
     19 C12         -0.0040     0.0060     2.4020 ca         1 DD5      -0.169000
     20 N01         -0.2090     0.0020    -2.4880 nd         1 DD5      -0.527800
     21 N02         -1.2490     0.0030    -3.4260 na         1 DD5       0.069400
     22 C14         -1.0930     0.0010    -4.8830 c3         1 DD5       0.061300
     23 C16          0.0530     1.1060    -6.8090 c3         1 DD5       0.151800
     24 N03          0.9250     2.2180    -7.2070 n3         1 DD5      -0.719600
     25 C18          1.7160     3.6640    -9.0160 c3         1 DD5       0.139900
     26 O03          3.0580     3.4180    -8.5850 os         1 DD5      -0.424600
     27 C19          3.1770     3.1760    -7.1810 c3         1 DD5       0.139900
     28 F01          0.4720     1.1430     4.8100 f          1 DD5      -0.242300
     29 F02          0.4710    -1.1410     4.8100 f          1 DD5      -0.242300
     30 O04         -0.8810     2.4050    -4.9970 oh         1 DD5      -0.590800
     31 H01          0.7270     1.1370    -4.7680 h1         1 DD5       0.057700
     32 H20         -0.1880     2.6720    -8.9250 h1         1 DD5       0.042950
     33 H26          2.3560     1.8210    -5.7280 h1         1 DD5       0.042950
     34 H25          2.6870     1.0870    -7.3080 h1         1 DD5       0.042950
     35 H27         -3.4090     0.0100    -3.1990 h4         1 DD5       0.172000
     36 H28         -2.8700     0.0110    -0.6290 ha         1 DD5       0.157000
     37 H02          1.9500     0.0100     5.6300 h3         1 DD5       0.121700
     38 H03          3.5130    -0.7370    -0.7380 h1         1 DD5       0.056700
     39 H05          5.8640    -0.5240     1.1220 hc         1 DD5       0.057700
     40 H04          5.5030    -1.7660    -0.0990 hc         1 DD5       0.057700
     41 H06          6.8400    -0.6860    -1.5940 hc         1 DD5       0.045700
     42 H07          7.2000     0.5570    -0.3730 hc         1 DD5       0.045700
     43 H09          5.1570     0.5900    -2.5750 hc         1 DD5       0.045700
     44 H08          6.0510     1.9480    -1.8400 hc         1 DD5       0.045700
     45 H10          3.4570     1.6120    -1.2250 hc         1 DD5       0.057700
     46 H11          4.6130     1.9930     0.0840 hc         1 DD5       0.057700
     47 H12          1.9360     0.0000    -0.9370 ha         1 DD5       0.160000
     48 H13         -1.7780     0.0120     1.2080 ha         1 DD5       0.141000
     49 H14         -0.5460     0.0110     3.3400 ha         1 DD5       0.157000
     50 H16         -2.0660     0.0910    -5.3510 h1         1 DD5       0.067200
     51 H15         -0.6280    -0.9260    -5.1950 h1         1 DD5       0.067200
     52 H18         -0.8860     1.1740    -7.3450 h1         1 DD5       0.043200
     53 H17          0.5360     0.1660    -7.0450 h1         1 DD5       0.043200
     54 H22          1.7030     3.8100   -10.0890 h1         1 DD5       0.054450
     55 H21          1.3360     4.5490    -8.5200 h1         1 DD5       0.054450
     56 H24          2.8370     4.0480    -6.6350 h1         1 DD5       0.054450
     57 H23          4.2120     2.9710    -6.9360 h1         1 DD5       0.054450
     58 H29         -0.3800     2.8840    -4.3580 ho         1 DD5       0.413000
     59 O01          2.0590    -0.0000     3.5830 os         1 DD5      -0.330900
     60 H19          1.1900     1.5880    -9.1890 h1         1 DD5       0.042950
@<TRIPOS>BOND
     1    29     8 1
     2    28     8 1
     3     8    59 1
     4    19    18 ar
     5    19     9 ar
     6    18     1 ar
     7    59     9 1
     8     9    10 ar
     9     7     2 1
    10     7     6 2
    11     1     2 1
    12     1    17 ar
    13     2    20 2
    14     6    21 1
    15    10    17 ar
    16    10    11 1
    17    20    21 1
    18    21    22 1
    19    11    12 1
    20    30     3 1
    21    22     3 1
    22    12    13 1
    23    12    16 1
    24     3    23 1
    25    13    14 1
    26    16    15 1
    27    14    15 1
    28    23    24 1
    29    24     5 1
    30    24     4 1
    31     5    27 1
    32     4    25 1
    33    27    26 1
    34    25    26 1
    35     3    31 1
    36     4    60 1
    37     4    32 1
    38     5    33 1
    39     5    34 1
    40     6    35 1
    41     7    36 1
    42     8    37 1
    43    12    38 1
    44    13    39 1
    45    13    40 1
    46    14    41 1
    47    14    42 1
    48    15    43 1
    49    15    44 1
    50    16    45 1
    51    16    46 1
    52    17    47 1
    53    18    48 1
    54    19    49 1
    55    22    50 1
    56    22    51 1
    57    23    52 1
    58    23    53 1
    59    25    54 1
    60    25    55 1
    61    27    56 1
    62    27    57 1
    63    30    58 1
@<TRIPOS>SUBSTRUCTURE
     1 DD5         1 TEMP              0 ****  ****    0 ROOT
