@<TRIPOS>MOLECULE
DD5
   60    63     1     0     0
SMALL
bcc


@<TRIPOS>ATOM
      1 C10          0.0000     0.0000     0.0000 ca         1 DD5      -0.098500
      2 C13         -0.7430     0.0010    -1.2850 cc         1 DD5       0.430800
      3 C15         -0.2130     1.1800    -5.3040 c3         1 DD5       0.169100
      4 C17          0.8400     2.4630    -8.6550 c3         1 DD5       0.107300
      5 C20          2.3150     1.9700    -6.8010 c3         1 DD5       0.107300
      6 C21         -2.4210     0.0070    -2.7550 cd         1 DD5      -0.234300
      7 C22         -2.1440     0.0080    -1.4330 cc         1 DD5      -0.322300
      8 C01          1.2780     0.0000     4.7800 c3         1 DD5       0.586700
      9 C02          1.3820    -0.0000     2.4040 ca         1 DD5       0.098100
     10 C03          2.0820     0.0000     1.2010 ca         1 DD5       0.130100
     11 O02          3.4410    -0.0020     1.2040 os         1 DD5      -0.284900
     12 C04          4.0930    -0.1200    -0.0620 c3         1 DD5       0.159100
     13 C05          5.5120    -0.7040     0.1130 c3         1 DD5      -0.043400
     14 C06          6.4140     0.0260    -0.8970 c3         1 DD5      -0.021900
     15 C07          5.5150     1.0260    -1.6500 c3         1 DD5      -0.021900
     16 C08          4.3330     1.2800    -0.6810 c3         1 DD5      -0.043400
     17 C09          1.3930     0.0000     0.0000 ca         1 DD5      -0.165000
     18 C11         -0.6950     0.0070     1.2070 ca         1 DD5      -0.088000
     19 C12         -0.0040     0.0060     2.4020 ca         1 DD5      -0.164000
     20 N01         -0.2090     0.0020    -2.4880 nd         1 DD5      -0.666800
     21 N02         -1.2490     0.0030    -3.4260 na         1 DD5       0.496400
     22 C14         -1.0930     0.0010    -4.8830 c3         1 DD5      -0.029700
     23 C16          0.0530     1.1060    -6.8090 c3         1 DD5       0.137800
     24 N03          0.9250     2.2180    -7.2070 n3         1 DD5      -0.526600
     25 C18          1.7160     3.6640    -9.0160 c3         1 DD5       0.215400
     26 O03          3.0580     3.4180    -8.5850 os         1 DD5      -0.411600
     27 C19          3.1770     3.1760    -7.1810 c3         1 DD5       0.215400
     28 F01          0.4720     1.1430     4.8100 f          1 DD5      -0.227300
     29 F02          0.4710    -1.1410     4.8100 f          1 DD5      -0.227300
     30 O04         -0.8810     2.4050    -4.9970 oh         1 DD5      -0.574800
     31 H01          0.7270     1.1370    -4.7680 h1         1 DD5       0.028700
     32 H20         -0.1880     2.6720    -8.9250 h1         1 DD5       0.017450
     33 H26          2.3560     1.8210    -5.7280 h1         1 DD5       0.017450
     34 H25          2.6870     1.0870    -7.3080 h1         1 DD5       0.017450
     35 H27         -3.4090     0.0100    -3.1990 h4         1 DD5       0.146000
     36 H28         -2.8700     0.0110    -0.6290 ha         1 DD5       0.138000
     37 H02          1.9500     0.0100     5.6300 h3         1 DD5       0.058700
     38 H03          3.5130    -0.7370    -0.7380 h1         1 DD5       0.030700
     39 H05          5.8640    -0.5240     1.1220 hc         1 DD5       0.026450
     40 H04          5.5030    -1.7660    -0.0990 hc         1 DD5       0.026450
     41 H06          6.8400    -0.6860    -1.5940 hc         1 DD5       0.014700
     42 H07          7.2000     0.5570    -0.3730 hc         1 DD5       0.014700
     43 H09          5.1570     0.5900    -2.5750 hc         1 DD5       0.014700
     44 H08          6.0510     1.9480    -1.8400 hc         1 DD5       0.014700
     45 H10          3.4570     1.6120    -1.2250 hc         1 DD5       0.026450
     46 H11          4.6130     1.9930     0.0840 hc         1 DD5       0.026450
     47 H12          1.9360     0.0000    -0.9370 ha         1 DD5       0.145000
     48 H13         -1.7780     0.0120     1.2080 ha         1 DD5       0.114000
     49 H14         -0.5460     0.0110     3.3400 ha         1 DD5       0.134000
     50 H16         -2.0660     0.0910    -5.3510 h1         1 DD5       0.038200
     51 H15         -0.6280    -0.9260    -5.1950 h1         1 DD5       0.038200
     52 H18         -0.8860     1.1740    -7.3450 h1         1 DD5       0.018700
     53 H17          0.5360     0.1660    -7.0450 h1         1 DD5       0.018700
     54 H22          1.7030     3.8100   -10.0890 h1         1 DD5       0.013200
     55 H21          1.3360     4.5490    -8.5200 h1         1 DD5       0.013200
     56 H24          2.8370     4.0480    -6.6350 h1         1 DD5       0.013200
     57 H23          4.2120     2.9710    -6.9360 h1         1 DD5       0.013200
     58 H29         -0.3800     2.8840    -4.3580 ho         1 DD5       0.400000
     59 O01          2.0590    -0.0000     3.5830 os         1 DD5      -0.302900
     60 H19          1.1900     1.5880    -9.1890 h1         1 DD5       0.017450
@<TRIPOS>BOND
     1     1     2 1   
     2     1    17 ar  
     3     1    18 ar  
     4     2     7 1   
     5     2    20 2   
     6     3    22 1   
     7     3    23 1   
     8     3    30 1   
     9     3    31 1   
    10     4    24 1   
    11     4    25 1   
    12     4    32 1   
    13     4    60 1   
    14     5    24 1   
    15     5    27 1   
    16     5    33 1   
    17     5    34 1   
    18     6     7 2   
    19     6    21 1   
    20     6    35 1   
    21     7    36 1   
    22     8    28 1   
    23     8    29 1   
    24     8    37 1   
    25     8    59 1   
    26     9    10 ar  
    27     9    19 ar  
    28     9    59 1   
    29    10    11 1   
    30    10    17 ar  
    31    11    12 1   
    32    12    13 1   
    33    12    16 1   
    34    12    38 1   
    35    13    14 1   
    36    13    39 1   
    37    13    40 1   
    38    14    15 1   
    39    14    41 1   
    40    14    42 1   
    41    15    16 1   
    42    15    43 1   
    43    15    44 1   
    44    16    45 1   
    45    16    46 1   
    46    17    47 1   
    47    18    19 ar  
    48    18    48 1   
    49    19    49 1   
    50    20    21 1   
    51    21    22 1   
    52    22    50 1   
    53    22    51 1   
    54    23    24 1   
    55    23    52 1   
    56    23    53 1   
    57    25    26 1   
    58    25    54 1   
    59    25    55 1   
    60    26    27 1   
    61    27    56 1   
    62    27    57 1   
    63    30    58 1   
@<TRIPOS>SUBSTRUCTURE
     1 DD5         1 TEMP              0 ****  ****    0 ROOT
