@<TRIPOS>MOLECULE
molecule
   47    51     1     0     0
SMALL
bcc


@<TRIPOS>ATOM
      1 C1           0.0000     0.0000     0.0000 c3         1 DD8       0.115300
      2 C3           2.2550     0.0000     1.0900 c          1 DD8       0.795500
      3 O4           1.8640     0.0000     2.2420 o          1 DD8      -0.658500
      4 C7           4.7500     1.3300     2.3790 c3         1 DD8      -0.140400
      5 C8           5.9170     1.2940     3.3690 c3         1 DD8       0.140900
      6 C10          5.7620    -1.0910     3.5800 c3         1 DD8       0.140900
      7 C11          4.5880    -1.1500     2.5990 c3         1 DD8      -0.140400
      8 C12          3.5940     0.0030    -0.6730 ca         1 DD8       0.024600
      9 C13          2.2800    -0.0010    -1.1290 ca         1 DD8      -0.151700
     10 C14          2.0300    -0.0040    -2.5000 ca         1 DD8       0.458200
     11 C16          4.2920     0.0010    -3.0030 ca         1 DD8       0.419600
     12 C19          6.9640     0.0100    -2.2140 cp         1 DD8      -0.027000
     13 C20          5.9790     0.0100    -1.2440 ca         1 DD8      -0.120000
     14 C21          4.6330     0.0060    -1.6280 ca         1 DD8      -0.129300
     15 C22          8.3940     0.0140    -1.8160 cp         1 DD8      -0.161300
     16 C24         10.7190     0.0170    -2.3600 ca         1 DD8      -0.249300
     17 N26         10.0210     0.0140    -0.1140 nb         1 DD8      -0.686000
     18 C27          8.7520     0.0110    -0.4690 ca         1 DD8       0.425200
     19 N2           1.4650     0.0000     0.0000 n          1 DD8      -0.345000
     20 N5           3.5470     0.0050     0.7080 n          1 DD8      -0.334000
     21 C6           4.7060     0.0090     1.6040 c3         1 DD8       0.127700
     22 O9           5.7620     0.1750     4.2450 os         1 DD8      -0.414600
     23 N15          3.0080    -0.0020    -3.3760 nb         1 DD8      -0.679000
     24 C17          5.3190     0.0010    -3.9660 ca         1 DD8      -0.152300
     25 C18          6.6200     0.0050    -3.5760 ca         1 DD8      -0.117000
     26 C23          9.4010     0.0140    -2.7840 ca         1 DD8      -0.084000
     27 C25         10.9930     0.0200    -1.0050 ca         1 DD8       0.421200
     28 H1          -0.3610    -0.8780    -0.5220 h1         1 DD8       0.055700
     29 H2          -0.3610    -0.0130     1.0210 h1         1 DD8       0.055700
     30 H3          -0.3610     0.8910    -0.5000 h1         1 DD8       0.055700
     31 H4           4.8890     2.1510     1.6850 hc         1 DD8       0.073700
     32 H5           3.8210     1.4610     2.9200 hc         1 DD8       0.073700
     33 H6           5.9240     2.2080     3.9500 h1         1 DD8       0.049700
     34 H7           6.8480     1.1990     2.8240 h1         1 DD8       0.049700
     35 H8           6.6910    -1.2120     3.0380 h1         1 DD8       0.049700
     36 H9           5.6580    -1.8820     4.3130 h1         1 DD8       0.049700
     37 H10          4.6130    -2.0900     2.0620 hc         1 DD8       0.073700
     38 H11          3.6560    -1.0630     3.1450 hc         1 DD8       0.073700
     39 H12          1.0050    -0.0070    -2.8510 h4         1 DD8       0.027100
     40 H13          6.2450     0.1480    -0.2030 ha         1 DD8       0.142000
     41 H14         11.5270     0.0200    -3.0820 ha         1 DD8       0.141000
     42 H15          7.9810     0.0060     0.2920 h4         1 DD8       0.020100
     43 H16          5.6170    -0.1010     1.0270 h1         1 DD8       0.070700
     44 H17          5.0710    -0.0030    -5.0200 ha         1 DD8       0.153000
     45 H18          7.4020     0.0050    -4.3250 ha         1 DD8       0.137000
     46 H19          9.1570     0.0120    -3.8390 ha         1 DD8       0.142000
     47 H20         12.0240     0.0230    -0.6690 h4         1 DD8       0.025100
@<TRIPOS>BOND
     1    24    25 ar
     2    24    11 ar
     3    23    11 ar
     4    23    10 ar
     5    25    12 ar
     6    11    14 ar
     7    10     9 ar
     8    18    17 ar
     9    18    15 ar
    10    12    13 ar
    11    12    15 1
    12    17    27 ar
    13    14    13 ar
    14    14     8 ar
    15     9     8 ar
    16     9    19 1
    17     1    19 1
    18    15    26 ar
    19     8    20 1
    20    19     2 1
    21     7     6 1
    22     7    21 1
    23    20     2 1
    24    20    21 1
    25     2     3 2
    26    27    16 ar
    27     6    22 1
    28    21     4 1
    29    26    16 ar
    30    22     5 1
    31     4     5 1
    32     1    28 1
    33     1    29 1
    34     1    30 1
    35     4    31 1
    36     4    32 1
    37     5    33 1
    38     5    34 1
    39     6    35 1
    40     6    36 1
    41     7    37 1
    42     7    38 1
    43    10    39 1
    44    13    40 1
    45    16    41 1
    46    18    42 1
    47    21    43 1
    48    24    44 1
    49    25    45 1
    50    26    46 1
    51    27    47 1
@<TRIPOS>SUBSTRUCTURE
     1 DD8         1 TEMP              0 ****  ****    0 ROOT
