@<TRIPOS>MOLECULE
molecule
   29    28     1     0     0
SMALL
bcc


@<TRIPOS>ATOM
      1 C1           0.0000     0.0000     0.0000 c3         1 DD9      -0.092100
      2 C2           1.5300     0.0000     0.0000 c3         1 DD9      -0.084400
      3 C3           2.0400     0.0000     1.4420 c3         1 DD9      -0.081400
      4 C4           3.5700    -0.0000     1.4430 c3         1 DD9      -0.082400
      5 C5           4.0800    -0.0000     2.8850 c3         1 DD9      -0.081400
      6 C6           5.6100    -0.0000     2.8850 c3         1 DD9      -0.082400
      7 C7           6.1210    -0.0000     4.3270 c3         1 DD9      -0.081400
      8 C8           7.6500    -0.0000     4.3270 c3         1 DD9      -0.084400
      9 C9           8.1610    -0.0000     5.7690 c3         1 DD9      -0.092100
     10 H1          -0.3610    -0.8850     0.5110 hc         1 DD9       0.032367
     11 H1A         -0.3610     0.8850     0.5110 hc         1 DD9       0.032367
     12 H1B         -0.3610     0.0000    -1.0210 hc         1 DD9       0.032367
     13 H2           1.8910     0.8840    -0.5110 hc         1 DD9       0.039700
     14 H2A          1.8910    -0.8840    -0.5110 hc         1 DD9       0.039700
     15 H3           1.6790     0.8840     1.9530 hc         1 DD9       0.040700
     16 H3A          1.6790    -0.8840     1.9530 hc         1 DD9       0.040700
     17 H4           3.9310     0.8840     0.9320 hc         1 DD9       0.040700
     18 H4A          3.9310    -0.8840     0.9320 hc         1 DD9       0.040700
     19 H5           3.7190     0.8840     3.3950 hc         1 DD9       0.040700
     20 H5A          3.7190    -0.8840     3.3950 hc         1 DD9       0.040700
     21 H6           5.9710    -0.8840     2.3740 hc         1 DD9       0.040700
     22 H6A          5.9710     0.8840     2.3740 hc         1 DD9       0.040700
     23 H7           5.7600     0.8840     4.8380 hc         1 DD9       0.040700
     24 H7A          5.7600    -0.8840     4.8380 hc         1 DD9       0.040700
     25 H8           8.0120     0.8840     3.8170 hc         1 DD9       0.039700
     26 H8A          8.0120    -0.8840     3.8170 hc         1 DD9       0.039700
     27 H9           7.8000    -0.8850     6.2800 hc         1 DD9       0.032367
     28 H9A          7.8000     0.8850     6.2800 hc         1 DD9       0.032367
     29 H9B          9.2440    -0.0000     5.7690 hc         1 DD9       0.032367
@<TRIPOS>BOND
     1     2     1 1
     2     1    10 1
     3     1    11 1
     4     1    12 1
     5     3     2 1
     6     2    13 1
     7     2    14 1
     8     4     3 1
     9     3    15 1
    10     3    16 1
    11     5     4 1
    12     4    17 1
    13     4    18 1
    14     6     5 1
    15     5    19 1
    16     5    20 1
    17     7     6 1
    18     6    21 1
    19     6    22 1
    20     8     7 1
    21     7    23 1
    22     7    24 1
    23     9     8 1
    24     8    25 1
    25     8    26 1
    26     9    27 1
    27     9    28 1
    28     9    29 1
@<TRIPOS>SUBSTRUCTURE
     1 DD9         1 TEMP              0 ****  ****    0 ROOT
