@<TRIPOS>MOLECULE
DD9
   29    28     1     0     0
SMALL
bcc


@<TRIPOS>ATOM
      1 C1          0.0100    0.0010   -0.0130 c3        1 DD9     -0.092100
      2 C2          1.5160   -0.0000    0.0150 c3        1 DD9     -0.080400
      3 C3          2.0450   -0.0000    1.4340 c3        1 DD9     -0.079400
      4 C4          3.5590   -0.0000    1.4580 c3        1 DD9     -0.079400
      5 C5          4.0860   -0.0010    2.8770 c3        1 DD9     -0.078400
      6 C6          5.5990   -0.0000    2.9010 c3        1 DD9     -0.079400
      7 C7          6.1270   -0.0000    4.3190 c3        1 DD9     -0.079400
      8 C8          7.6410    0.0000    4.3450 c3        1 DD9     -0.080400
      9 C9          8.1700    0.0000    5.7560 c3        1 DD9     -0.092100
     10 H1         -0.3940    0.9060    0.5010 hc        1 DD9      0.032700
     11 H1A        -0.3950   -0.9040    0.5020 hc        1 DD9      0.032700
     12 H1B        -0.3580    0.0000   -1.0670 hc        1 DD9      0.032700
     13 H2          1.9040    0.9020   -0.5280 hc        1 DD9      0.038700
     14 H2A         1.9030   -0.9030   -0.5270 hc        1 DD9      0.038700
     15 H3          1.6610   -0.9030    1.9780 hc        1 DD9      0.039700
     16 H3A         1.6600    0.9020    1.9780 hc        1 DD9      0.039700
     17 H4          3.9440   -0.9020    0.9130 hc        1 DD9      0.039700
     18 H4A         3.9430    0.9030    0.9140 hc        1 DD9      0.039700
     19 H5          3.7020   -0.9040    3.4210 hc        1 DD9      0.039700
     20 H5A         3.7010    0.9010    3.4210 hc        1 DD9      0.039700
     21 H6          5.9840   -0.9020    2.3560 hc        1 DD9      0.039700
     22 H6A         5.9840    0.9030    2.3570 hc        1 DD9      0.039700
     23 H7          5.7420    0.9020    4.8640 hc        1 DD9      0.039700
     24 H7A         5.7430   -0.9030    4.8640 hc        1 DD9      0.039700
     25 H8          8.0230    0.9030    3.7990 hc        1 DD9      0.038700
     26 H8A         8.0240   -0.9020    3.7990 hc        1 DD9      0.038700
     27 H9          7.8190    0.9050    6.3090 hc        1 DD9      0.032700
     28 H9A         7.8200   -0.9050    6.3090 hc        1 DD9      0.032700
     29 H9B         9.2870    0.0010    5.7520 hc        1 DD9      0.032700
@<TRIPOS>BOND
     1    1    2 1   
     2    1   10 1   
     3    1   11 1   
     4    1   12 1   
     5    2    3 1   
     6    2   13 1   
     7    2   14 1   
     8    3    4 1   
     9    3   15 1   
    10    3   16 1   
    11    4    5 1   
    12    4   17 1   
    13    4   18 1   
    14    5    6 1   
    15    5   19 1   
    16    5   20 1   
    17    6    7 1   
    18    6   21 1   
    19    6   22 1   
    20    7    8 1   
    21    7   23 1   
    22    7   24 1   
    23    8    9 1   
    24    8   25 1   
    25    8   26 1   
    26    9   27 1   
    27    9   28 1   
    28    9   29 1   
@<TRIPOS>SUBSTRUCTURE
     1 DD9         1 TEMP              0 ****  ****    0 ROOT
