@<TRIPOS>MOLECULE
molecule
   30    32     1     0     0
SMALL
bcc


@<TRIPOS>ATOM
      1 C1           0.0000     0.0000     0.0000 ca         1 DDC       0.164100
      2 C2           1.3920     0.0000     0.0000 ca         1 DDC      -0.197000
      3 C3           2.0750     0.0000     1.1830 ca         1 DDC      -0.027000
      4 C4           1.3730     0.0050     2.3920 ca         1 DDC      -0.262600
      5 C5          -0.0300     0.0220     2.4060 ca         1 DDC       0.179100
      6 C6          -0.7070     0.0170     1.1920 ca         1 DDC      -0.201000
      7 C7           2.1060    -0.0170     3.6710 c          1 DDC       0.581700
      8 C8           1.2440     0.1400     4.9140 c3         1 DDC      -0.204400
      9 C9          -0.0720    -0.5930     4.6080 c3         1 DDC       0.189400
     10 O1          -0.7500     0.0570     3.5450 os         1 DDC      -0.297900
     11 O2          -0.6700    -0.0120    -1.1790 oh         1 DDC      -0.520100
     12 C10         -0.9450    -0.5880     5.8350 ca         1 DDC      -0.096300
     13 C11         -1.8390     0.4460     6.0440 ca         1 DDC      -0.108500
     14 C12         -2.6390     0.4500     7.1710 ca         1 DDC      -0.128000
     15 C13         -2.5470    -0.5800     8.0880 ca         1 DDC      -0.120000
     16 C14         -1.6550    -1.6130     7.8800 ca         1 DDC      -0.128000
     17 C15         -0.8570    -1.6200     6.7500 ca         1 DDC      -0.108500
     18 O3           3.3110    -0.1500     3.7270 o          1 DDC      -0.518100
     19 H2           1.9340    -0.0130    -0.9380 ha         1 DDC       0.148000
     20 H3           3.1580     0.0000     1.1840 ha         1 DDC       0.157000
     21 H6          -1.7900     0.0170     1.1770 ha         1 DDC       0.158000
     22 H81          1.7340    -0.3160     5.7660 hc         1 DDC       0.088700
     23 H82          1.0510     1.1890     5.1030 hc         1 DDC       0.088700
     24 H9           0.1470    -1.6140     4.3210 h1         1 DDC       0.060700
     25 HO2         -0.8660    -0.9020    -1.4210 ho         1 DDC       0.427000
     26 H11         -1.9110     1.2530     5.3250 ha         1 DDC       0.138000
     27 H12         -3.3400     1.2600     7.3340 ha         1 DDC       0.133500
     28 H13         -3.1740    -0.5750     8.9720 ha         1 DDC       0.132000
     29 H14         -1.5840    -2.4210     8.5980 ha         1 DDC       0.133500
     30 H15         -0.1580    -2.4300     6.5870 ha         1 DDC       0.138000
@<TRIPOS>BOND
     1     1     2 ar
     2     1     6 ar
     3     1    11 1
     4     2     3 ar
     5     2    19 1
     6     3     4 ar
     7     3    20 1
     8     4     5 ar
     9     4     7 1
    10     5     6 ar
    11     5    10 1
    12     6    21 1
    13     7     8 1
    14     7    18 2
    15     8     9 1
    16     8    22 1
    17     8    23 1
    18     9    10 1
    19     9    12 1
    20     9    24 1
    21    11    25 1
    22    12    13 ar
    23    12    17 ar
    24    13    14 ar
    25    13    26 1
    26    14    15 ar
    27    14    27 1
    28    15    16 ar
    29    15    28 1
    30    16    17 ar
    31    16    29 1
    32    17    30 1
@<TRIPOS>SUBSTRUCTURE
     1 DDC         1 TEMP              0 ****  ****    0 ROOT
