@<TRIPOS>MOLECULE
DDC
   30    32     1     0     0
SMALL
bcc


@<TRIPOS>ATOM
      1 C1          0.0280    0.1620   -0.0230 ca        1 DDC      0.185100
      2 C2          1.4360    0.2270   -0.0330 ca        1 DDC     -0.204000
      3 C3          2.1220    0.1400    1.1690 ca        1 DDC     -0.009000
      4 C4          1.4370   -0.0070    2.3860 ca        1 DDC     -0.282600
      5 C5          0.0320   -0.0880    2.3690 ca        1 DDC      0.208100
      6 C6         -0.6880   -0.0010    1.1680 ca        1 DDC     -0.264000
      7 C7          2.1670   -0.0450    3.6570 c         1 DDC      0.591700
      8 C8          1.2970   -0.0280    4.8840 c3        1 DDC     -0.210400
      9 C9         -0.0150   -0.7630    4.6460 c3        1 DDC      0.198400
     10 O1         -0.7280   -0.2210    3.5100 os        1 DDC     -0.321900
     11 O2         -0.5930    0.2590   -1.2420 oh        1 DDC     -0.489100
     12 C10        -0.9280   -0.6410    5.8280 ca        1 DDC     -0.098300
     13 C11        -1.7400    0.4850    5.9980 ca        1 DDC     -0.108000
     14 C12        -2.5690    0.5850    7.1140 ca        1 DDC     -0.131500
     15 C13        -2.5900   -0.4360    8.0640 ca        1 DDC     -0.120000
     16 C14        -1.7830   -1.5620    7.8940 ca        1 DDC     -0.131500
     17 C15        -0.9570   -1.6690    6.7770 ca        1 DDC     -0.108000
     18 O3          3.4010   -0.0540    3.7360 o         1 DDC     -0.534100
     19 H2          1.9650    0.3460   -0.9880 ha        1 DDC      0.158000
     20 H3          3.2240    0.1930    1.1890 ha        1 DDC      0.160000
     21 H6         -1.7840   -0.0600    1.1800 ha        1 DDC      0.156000
     22 H81         1.8360   -0.4990    5.7470 hc        1 DDC      0.090200
     23 H82         1.0930    1.0440    5.1490 hc        1 DDC      0.090200
     24 H9          0.1910   -1.8490    4.4190 h1        1 DDC      0.064700
     25 HO2        -1.5510    0.2020   -1.1010 ho        1 DDC      0.426000
     26 H11        -1.7250    1.2830    5.2400 ha        1 DDC      0.139500
     27 H12        -3.2080    1.4710    7.2430 ha        1 DDC      0.135000
     28 H13        -3.2430   -0.3560    8.9460 ha        1 DDC      0.134000
     29 H14        -1.8000   -2.3690    8.6410 ha        1 DDC      0.135000
     30 H15        -0.3270   -2.5610    6.6430 ha        1 DDC      0.139500
@<TRIPOS>BOND
     1    1    2 ar  
     2    1    6 ar  
     3    1   11 1   
     4    2    3 ar  
     5    2   19 1   
     6    3    4 ar  
     7    3   20 1   
     8    4    5 ar  
     9    4    7 1   
    10    5    6 ar  
    11    5   10 1   
    12    6   21 1   
    13    7    8 1   
    14    7   18 2   
    15    8    9 1   
    16    8   22 1   
    17    8   23 1   
    18    9   10 1   
    19    9   12 1   
    20    9   24 1   
    21   11   25 1   
    22   12   13 ar  
    23   12   17 ar  
    24   13   14 ar  
    25   13   26 1   
    26   14   15 ar  
    27   14   27 1   
    28   15   16 ar  
    29   15   28 1   
    30   16   17 ar  
    31   16   29 1   
    32   17   30 1   
@<TRIPOS>SUBSTRUCTURE
     1 DDC         1 TEMP              0 ****  ****    0 ROOT
