@<TRIPOS>MOLECULE
molecule
   37    38     1     0     0
SMALL
bcc


@<TRIPOS>ATOM
      1 O31          0.0000     0.0000     0.0000 o          1 DDD      -0.831300
      2 C3           1.3430     0.0000     0.0000 c          1 DDD       0.892600
      3 O32          1.9470     0.0000     1.0460 o          1 DDD      -0.831300
      4 CA4          2.0960     0.0010    -1.3050 c3         1 DDD       0.011500
      5 CB2          1.7260    -1.2470    -2.1070 c3         1 DDD      -0.075400
      6 CG2          1.9020    -1.0760    -3.5910 c3         1 DDD      -0.167400
      7 CD1          3.0290    -0.3140    -4.1500 c          1 DDD       0.714500
      8 OE1          2.9410     0.1820    -5.2540 o          1 DDD      -0.690500
      9 N2           4.1660    -0.1700    -3.4270 n          1 DDD      -0.483800
     10 CA3          4.1750    -0.7420    -2.1340 c3         1 DDD       0.242200
     11 N3           3.5850     0.0010    -1.0290 n3         1 DDD      -0.601600
     12 CD2          3.8810     1.4750    -1.0930 c3         1 DDD       0.228900
     13 SD           5.5630     1.8000    -1.5960 ss         1 DDD      -0.339200
     14 CB1          5.4350     1.8440    -3.4030 c3         1 DDD      -0.013300
     15 CA2          5.3570     0.5050    -4.0080 c3         1 DDD       0.048700
     16 C2           6.6010    -0.2780    -3.6810 c          1 DDD       0.631100
     17 O2           6.5120    -1.3710    -3.1630 o          1 DDD      -0.578100
     18 N1           7.8150     0.2350    -3.9680 ns         1 DDD      -0.492900
     19 CA1          9.0250    -0.5270    -3.6510 c3         1 DDD       0.090000
     20 C1          10.2400     0.2620    -4.0670 c          1 DDD       0.872600
     21 O11         11.4670    -0.2430    -3.8730 o          1 DDD      -0.798300
     22 O12         10.1070     1.3500    -4.5760 o          1 DDD      -0.798300
     23 HA4          1.8370     0.8850    -1.8760 h1         1 DDD       0.038700
     24 HB21         0.6890    -1.4910    -1.9080 hc         1 DDD       0.066700
     25 HB22         2.3510    -2.0680    -1.7770 hc         1 DDD       0.066700
     26 HG21         0.9960    -0.6110    -3.9620 hc         1 DDD       0.061200
     27 HG22         1.9560    -2.0710    -4.0160 hc         1 DDD       0.061200
     28 HA31         5.2080    -0.9420    -1.8750 h2         1 DDD       0.092200
     29 HA32         3.6610    -1.6940    -2.1960 h2         1 DDD       0.092200
     30 HD21         3.7180     1.9080    -0.1130 h2         1 DDD       0.079200
     31 HD22         3.2070     1.9370    -1.8040 h2         1 DDD       0.079200
     32 HB11         6.3040     2.3540    -3.7990 h1         1 DDD       0.072700
     33 HB12         4.5450     2.3990    -3.6730 h1         1 DDD       0.072700
     34 HA2          5.2410     0.5940    -5.0820 h1         1 DDD       0.096700
     35 HN1          7.8880     1.1170    -4.4340 hn         1 DDD       0.341500
     36 HA11         9.0070    -1.4700    -4.1840 h1         1 DDD      -0.124800
     37 HA12        -3.7690     0.9340    -1.4420 h1         1 DDD      -0.124800
@<TRIPOS>BOND
     1     1     2 1
     2     2     3 1
     3     2     4 1
     4     4     5 1
     5     4    11 1
     6     4    23 1
     7     5     6 1
     8     5    24 1
     9     5    25 1
    10     6     7 1
    11     6    26 1
    12     6    27 1
    13     7     8 2
    14     7     9 1
    15     9    15 1
    16     9    10 1
    17    10    11 1
    18    10    28 1
    19    10    29 1
    20    11    12 1
    21    12    13 1
    22    12    30 1
    23    12    31 1
    24    13    14 1
    25    14    15 1
    26    14    32 1
    27    14    33 1
    28    15    16 1
    29    15    34 1
    30    16    17 2
    31    16    18 1
    32    18    19 1
    33    18    35 1
    34    19    20 1
    35    19    36 1
    36    19    37 1
    37    20    22 1
    38    20    21 1
@<TRIPOS>SUBSTRUCTURE
     1 DDD         1 TEMP              0 ****  ****    0 ROOT
