@<TRIPOS>MOLECULE
DDF
   56    57     1     0     0
SMALL
bcc


@<TRIPOS>ATOM
      1 N1         -1.4240    2.0460    0.4410 n3        1 DDF     -0.312000
      2 C2         -0.1360    1.7900   -0.0850 c2        1 DDF      0.277000
      3 NA2         0.3080    2.6560   -1.1050 n3        1 DDF     -0.343000
      4 N3          0.6340    0.7550    0.2590 n2        1 DDF     -0.344000
      5 C4          0.1560   -0.2000    1.1690 c2        1 DDF      0.286000
      6 O4          0.8940   -1.1150    1.5600 o         1 DDF     -0.293000
      7 C4A        -1.2970   -0.1340    1.6350 c3        1 DDF     -0.162000
      8 C5         -1.4480   -0.6580    3.0530 c3        1 DDF     -0.147000
      9 C6         -2.8780   -0.4730    3.5320 c3        1 DDF     -0.135000
     10 C7         -3.2810    1.0070    3.4420 c3        1 DDF     -0.084000
     11 N8         -2.7750    1.7690    2.3390 n2        1 DDF     -0.224000
     12 C8A        -1.8810    1.2700    1.5370 c2        1 DDF      0.090000
     13 C9         -3.0280   -0.9910    4.9520 c3        1 DDF     -0.147000
     14 C10        -4.4780   -0.9920    5.3990 c3        1 DDF     -0.148000
     15 C11        -4.9610   -2.5330    9.3980 c2        1 DDF     -0.204000
     16 C12        -4.4080   -1.3000    9.2290 c2        1 DDF     -0.019000
     17 C13        -4.2740   -0.6800    7.8970 c3        1 DDF     -0.179000
     18 C14        -4.6380   -1.5660    6.7630 c2        1 DDF     -0.030000
     19 C15        -5.1340   -2.8110    6.9830 c2        1 DDF     -0.203000
     20 C16        -5.3650   -3.3420    8.2910 c1        1 DDF     -0.067000
     21 O          -4.5960   -2.4820   11.7550 o         1 DDF     -0.432000
     22 N          -6.0860   -4.0480   10.9830 n         1 DDF     -0.355000
     23 CA         -7.3650    0.2040   10.3270 c2        1 DDF     -0.343000
     24 CB         -8.3250   -0.2640   11.1420 c2        1 DDF      0.017000
     25 CG         -8.0790   -1.2110   12.2380 c3        1 DDF     -0.259000
     26 CD         -9.0770   -2.4010   12.1440 c2        1 DDF      0.345000
     27 OE1        -8.5990   -3.5620   12.2650 o         1 DDF     -0.565000
     28 OE2       -10.2940   -2.1270   11.9640 o         1 DDF     -0.565000
     29 CT         -7.5620    1.0870    9.1880 c2        1 DDF      0.355000
     30 O1         -8.8090    1.4960    8.7930 oh        1 DDF     -0.309000
     31 O2         -6.6710    1.5550    8.4600 o         1 DDF     -0.388000
     32 HN1        -1.8630    2.9250    0.2740 hn        1 DDF      0.245000
     33 HN21        0.0530    3.6120   -1.0190 hn        1 DDF      0.219000
     34 HN22        1.2410    2.4950   -1.4190 hn        1 DDF      0.219000
     35 H51        -1.8900   -0.7920    0.9330 hc        1 DDF      0.140000
     36 H52        -1.1650   -1.7440    3.0710 hc        1 DDF      0.107500
     37 H6         -0.7410   -0.1190    3.7350 hc        1 DDF      0.107500
     38 H71        -3.5590   -1.0670    2.8600 hc        1 DDF      0.096000
     39 H72        -4.4070    1.0780    3.3930 h1        1 DDF      0.113500
     40 HN8        -2.9500    1.5440    4.3790 h1        1 DDF      0.113500
     41 H91        -5.0910   -1.5830    4.6660 hc        1 DDF      0.097500
     42 H92        -2.4150   -0.3630    5.6500 hc        1 DDF      0.090000
     43 H101       -2.6230   -2.0370    5.0020 hc        1 DDF      0.090000
     44 H102       -4.8740    0.0600    5.3940 hc        1 DDF      0.097500
     45 H12        -4.9650    0.2260    7.8840 hc        1 DDF      0.157000
     46 H13        -4.0770   -0.6980   10.0950 ha        1 DDF      0.157000
     47 H15        -3.2270   -0.2920    7.7580 hc        1 DDF      0.157000
     48 H16        -5.4100   -3.4610    6.1370 ha        1 DDF      0.136000
     49 HN         -6.6240   -4.3330   10.1950 hn        1 DDF      0.244000
     50 HA         -9.4850    1.0610    9.3320 ho        1 DDF      0.231000
     51 HB1        -6.3100   -0.0900   10.4750 ha        1 DDF      0.151000
     52 HB2        -9.3930    0.0050   11.0230 ha        1 DDF      0.133000
     53 HG1        -8.2770   -0.7060   13.2200 hc        1 DDF      0.103000
     54 HG2        -7.0280   -1.5990   12.2430 hc        1 DDF      0.103000
     55 H2         -6.5540   -4.1050   11.8680 hn        1 DDF      0.244000
     56 C          -5.2080   -3.0150   10.7960 c2        1 DDF      0.335000
@<TRIPOS>BOND
     1    1    2 1   
     2    1   12 1   
     3    1   32 1   
     4    2    3 1   
     5    2    4 1   
     6    3   33 1   
     7    3   34 1   
     8    4    5 1   
     9    5    6 1   
    10    5    7 1   
    11    7    8 1   
    12    7   12 1   
    13    7   35 1   
    14    8    9 1   
    15    8   36 1   
    16    8   37 1   
    17    9   10 1   
    18    9   13 1   
    19    9   38 1   
    20   10   11 1   
    21   10   39 1   
    22   10   40 1   
    23   11   12 1   
    24   13   14 1   
    25   13   42 1   
    26   13   43 1   
    27   14   18 1   
    28   14   41 1   
    29   14   44 1   
    30   15   16 1   
    31   15   20 1   
    32   15   56 1   
    33   16   17 1   
    34   16   46 1   
    35   17   18 1   
    36   17   45 1   
    37   17   47 1   
    38   18   19 1   
    39   19   20 1   
    40   19   48 1   
    41   21   56 1   
    42   22   49 1   
    43   22   55 1   
    44   22   56 1   
    45   23   24 1   
    46   23   29 1   
    47   23   51 1   
    48   24   25 1   
    49   24   52 1   
    50   25   26 1   
    51   25   53 1   
    52   25   54 1   
    53   26   27 1   
    54   26   28 1   
    55   29   30 1   
    56   29   31 1   
    57   30   50 1   
@<TRIPOS>SUBSTRUCTURE
     1 DDF         1 TEMP              0 ****  ****    0 ROOT
