@<TRIPOS>MOLECULE
DDJ
   34    35     1     0     0
SMALL
bcc


@<TRIPOS>ATOM
      1 NAA          0.0000     0.0000     0.0000 nv         1 DDJ      -0.492200
      2 OAC          2.1200    -0.0000     1.7900 os         1 DDJ      -0.308900
      3 CAD          5.6020     0.0000    -3.2310 ca         1 DDJ      -0.184500
      4 CAE          3.6820     0.0000     0.0000 ca         1 DDJ      -0.184500
      5 CAF          2.3760     0.0000     0.4530 ca         1 DDJ       0.107600
      6 CAG          1.3220     0.0000    -0.4590 ca         1 DDJ       0.010600
      7 CAH          3.9420     0.0000    -1.3710 cp         1 DDJ      -0.016500
      8 CAI          2.8850     0.0000    -2.2790 ca         1 DDJ      -0.113000
      9 CAJ          1.5820     0.0000    -1.8230 ca         1 DDJ      -0.119000
     10 CAK          6.9070     0.0000    -3.6840 ca         1 DDJ       0.107600
     11 CAL          5.3420     0.0000    -1.8600 cp         1 DDJ      -0.016500
     12 CAM          7.9610     0.0000    -2.7720 ca         1 DDJ       0.010600
     13 CAN          7.7020    -0.0000    -1.4080 ca         1 DDJ      -0.119000
     14 CAO          6.3990    -0.0000    -0.9520 ca         1 DDJ      -0.113000
     15 CAP          6.0350    -0.0010    -5.8970 c3         1 DDJ       0.244200
     16 CAQ          3.2490    -0.0010     2.6660 c3         1 DDJ       0.244200
     17 NAR          9.2830     0.0000    -3.2310 nv         1 DDJ      -0.492200
     18 HNAA        -0.4780     0.8670     0.1490 hn         1 DDJ       0.269550
     19 HNAB        -0.4780    -0.8670     0.1490 hn         1 DDJ       0.269550
     20 HAD          4.7830     0.0670    -3.9380 ha         1 DDJ       0.129000
     21 HAE          4.5020    -0.0000     0.7080 ha         1 DDJ       0.129000
     22 HAI          3.0860    -0.0000    -3.3430 ha         1 DDJ       0.108000
     23 HAJ          0.7610     0.0000    -2.5300 ha         1 DDJ       0.107500
     24 HAN          8.5220    -0.0000    -0.7010 ha         1 DDJ       0.107500
     25 HAO          6.1980    -0.0000     0.1120 ha         1 DDJ       0.108000
     26 HAP          6.3760    -0.0170    -6.9250 h1         1 DDJ      -0.003467
     27 HAPA         5.4280    -0.8770    -5.7040 h1         1 DDJ      -0.003467
     28 HAPB         5.4450     0.8910    -5.7260 h1         1 DDJ      -0.003467
     29 HAQ          2.9070    -0.0010     3.6940 h1         1 DDJ      -0.003467
     30 HAQA         3.8470    -0.8860     2.4840 h1         1 DDJ      -0.003467
     31 HAQB         3.8470     0.8830     2.4850 h1         1 DDJ      -0.003467
     32 HNAR        10.0410     0.0000    -2.5770 hn         1 DDJ       0.269550
     33 HNAC         9.4720    -0.0000    -4.2140 hn         1 DDJ       0.269550
     34 OAB          7.1630     0.0000    -5.0210 os         1 DDJ      -0.308900
@<TRIPOS>BOND
     1     1     6 1   
     2     1    18 1   
     3     1    19 1   
     4     2     5 1   
     5     2    16 1   
     6     3    10 ar  
     7     3    11 ar  
     8     3    20 1   
     9     4     5 ar  
    10     4     7 ar  
    11     4    21 1   
    12     5     6 ar  
    13     6     9 ar  
    14     7     8 ar  
    15     7    11 1   
    16     8     9 ar  
    17     8    22 1   
    18     9    23 1   
    19    10    12 ar  
    20    10    34 1   
    21    11    14 ar  
    22    12    13 ar  
    23    12    17 1   
    24    13    14 ar  
    25    13    24 1   
    26    14    25 1   
    27    15    26 1   
    28    15    27 1   
    29    15    28 1   
    30    15    34 1   
    31    16    29 1   
    32    16    30 1   
    33    16    31 1   
    34    17    32 1   
    35    17    33 1   
@<TRIPOS>SUBSTRUCTURE
     1 DDJ         1 TEMP              0 ****  ****    0 ROOT
