@<TRIPOS>MOLECULE
DDK
   29    28     1     0     0
SMALL
bcc


@<TRIPOS>ATOM
      1 OAB          0.0000     0.0000     0.0000 o          1 DDK      -0.865300
      2 CAK          1.2080     0.0000     0.0000 c          1 DDK       0.969600
      3 OAC          1.8790     0.0000     1.1630 o          1 DDK      -0.865300
      4 CAL          1.9620    -0.0070    -1.3050 c3         1 DDK      -0.156700
      5 CAF          2.8430     1.2420    -1.3920 c3         1 DDK       0.203700
      6 SED          4.2180     1.1690     0.0020 sh         1 DDK      -0.411900
      7 CAJ          0.9690    -0.0120    -2.4680 c3         1 DDK      -0.007400
      8 CAI          1.7300    -0.1450    -3.7890 c3         1 DDK      -0.046400
      9 CAH          0.7350    -0.1510    -4.9510 c3         1 DDK      -0.017400
     10 CAG          1.4970    -0.2840    -6.2720 c3         1 DDK      -0.038400
     11 CAE          0.5030    -0.2890    -7.4360 c3         1 DDK      -0.057200
     12 NAA          1.2340    -0.4160    -8.7040 nz         1 DDK       0.082400
     13 H2           2.5850    -0.8920    -1.3580 hc         1 DDK       0.036700
     14 H3           2.2320     2.1250    -1.2500 h1         1 DDK       0.000700
     15 H4           3.3160     1.2830    -2.3650 h1         1 DDK       0.000700
     16 H5           5.2180     2.1790    -0.2540 hs         1 DDK       0.133800
     17 H6           0.4070     0.9140    -2.4670 hc         1 DDK       0.030200
     18 H7           0.2880    -0.8470    -2.3580 hc         1 DDK       0.030200
     19 H8           2.2920    -1.0700    -3.7900 hc         1 DDK       0.016700
     20 H9           2.4100     0.6910    -3.8990 hc         1 DDK       0.016700
     21 H10          0.0550    -0.9870    -4.8410 hc         1 DDK       0.026700
     22 H11          0.1730     0.7750    -4.9500 hc         1 DDK       0.026700
     23 H12          2.1770     0.5520    -6.3820 hc         1 DDK       0.030700
     24 H13          2.0590    -1.2100    -6.2730 hc         1 DDK       0.030700
     25 H14         -0.0600     0.6370    -7.4350 hx         1 DDK       0.085200
     26 H15         -0.1780    -1.1240    -7.3260 hx         1 DDK       0.085200
     27 H16          1.8630     0.3560    -8.8060 hn         1 DDK       0.219467
     28 H17          1.7530    -1.2710    -8.7050 hn         1 DDK       0.219467
     29 HAA3         0.5840    -0.4190    -9.4650 hn         1 DDK       0.219467
@<TRIPOS>BOND
     1     1     2 1   
     2     2     3 1   
     3     2     4 1   
     4     4     5 1   
     5     4     7 1   
     6     4    13 1   
     7     5     6 1   
     8     5    14 1   
     9     5    15 1   
    10     6    16 1   
    11     7     8 1   
    12     7    17 1   
    13     7    18 1   
    14     8     9 1   
    15     8    19 1   
    16     8    20 1   
    17     9    10 1   
    18     9    21 1   
    19     9    22 1   
    20    10    11 1   
    21    10    23 1   
    22    10    24 1   
    23    11    12 1   
    24    11    25 1   
    25    11    26 1   
    26    12    27 1   
    27    12    28 1   
    28    12    29 1   
@<TRIPOS>SUBSTRUCTURE
     1 DDK         1 TEMP              0 ****  ****    0 ROOT
