@<TRIPOS>MOLECULE
DDM
   24    24     1     0     0
SMALL
bcc


@<TRIPOS>ATOM
      1 C2           0.0000     0.0000     0.0000 c3         1 DDM       0.175100
      2 C3           1.5320     0.0000     0.0000 c3         1 DDM       0.159100
      3 C1          -0.5020    -1.1930     0.8170 c3         1 DDM       0.115800
      4 C4           2.0280     0.0000     1.4480 c3         1 DDM       0.184100
      5 C5           1.4200    -1.1910     2.1890 c3         1 DDM       0.095500
      6 C6           1.9430    -1.2180     3.6260 c3         1 DDM       0.222400
      7 O2          -0.4780     1.2130     0.5830 oh         1 DDM      -0.554800
      8 O3           2.0100     1.1670    -0.6730 oh         1 DDM      -0.573800
      9 O4           3.4530    -0.1020     1.4640 oh         1 DDM      -0.593800
     10 N5          -0.0400    -1.0730     2.2030 n7         1 DDM      -0.547200
     11 O6           1.3800    -2.3330     4.3180 oh         1 DDM      -0.603800
     12 HC2         -0.3600    -0.0840    -1.0180 h1         1 DDM      -0.002300
     13 HC3          1.8920    -0.8880    -0.5040 h1         1 DDM       0.011700
     14 HC11        -1.5850    -1.2090     0.8000 h1         1 DDM       0.010200
     15 HC12        -0.1160    -2.1100     0.3880 h1         1 DDM       0.010200
     16 HC4          1.7220     0.9190     1.9330 h1         1 DDM       0.040700
     17 HC5          1.7000    -2.1070     1.6830 h1         1 DDM       0.019700
     18 HC61         3.0230    -1.3080     3.6160 h1         1 DDM      -0.000300
     19 HC62         1.6620    -0.3010     4.1300 h1         1 DDM      -0.000300
     20 HO2         -1.1810     1.5570     0.0580 ho         1 DDM       0.383000
     21 HO3          2.3820     0.9200    -1.5040 ho         1 DDM       0.386000
     22 HO4          3.8260     0.7380     1.6780 ho         1 DDM       0.398000
     23 HN5         -0.4300    -1.8150     2.7500 hn         1 DDM       0.270800
     24 HO6          1.8330    -2.4570     5.1350 ho         1 DDM       0.394000
@<TRIPOS>BOND
     1     1     2 1   
     2     1     3 1   
     3     1     7 1   
     4     1    12 1   
     5     2     4 1   
     6     2     8 1   
     7     2    13 1   
     8     3    10 1   
     9     3    14 1   
    10     3    15 1   
    11     4     5 1   
    12     4     9 1   
    13     4    16 1   
    14     5     6 1   
    15     5    10 1   
    16     5    17 1   
    17     6    11 1   
    18     6    18 1   
    19     6    19 1   
    20     7    20 1   
    21     8    21 1   
    22     9    22 1   
    23    10    23 1   
    24    11    24 1   
@<TRIPOS>SUBSTRUCTURE
     1 DDM         1 TEMP              0 ****  ****    0 ROOT
