@<TRIPOS>MOLECULE
DDO
   23    22     1     0     0
SMALL
bcc


@<TRIPOS>ATOM
      1 N            0.0000     0.0000     0.0000 nz         1 DDO       0.056400
      2 CA           1.4690     0.0000     0.0000 c3         1 DDO      -0.199500
      3 CB           1.9790     0.0000     1.4410 c3         1 DDO      -0.020400
      4 CG           1.4710    -1.2480     2.1630 c3         1 DDO      -0.043400
      5 CD           1.9810    -1.2470     3.6050 c3         1 DDO      -0.032400
      6 CE           1.4720    -2.4960     4.3280 c3         1 DDO       0.227400
      7 OZ           1.9480    -2.4960     5.6740 oh         1 DDO      -0.586800
      8 C            1.9700     1.2290    -0.7120 c          1 DDO       0.953600
      9 O            3.1420     1.1970    -1.3640 o          1 DDO      -0.812300
     10 OXT          1.3180     2.2460    -0.6950 o          1 DDO      -0.812300
     11 HN1         -0.3340     0.1480     0.9320 hn         1 DDO       0.215467
     12 HN2         -0.3340    -0.8810    -0.3380 hn         1 DDO       0.215467
     13 HA1          1.8300    -0.8850    -0.5100 hx         1 DDO       0.087700
     14 HB1          1.6170     0.8840     1.9520 hc         1 DDO       0.056700
     15 HB2          3.0620     0.0010     1.4410 hc         1 DDO       0.056700
     16 HG1          1.8320    -2.1320     1.6520 hc         1 DDO       0.001700
     17 HG2          0.3880    -1.2490     2.1630 hc         1 DDO       0.001700
     18 HD1          3.0640    -1.2470     3.6050 hc         1 DDO       0.033700
     19 HD2          1.6200    -0.3630     4.1160 hc         1 DDO       0.033700
     20 HE1          1.8330    -3.3810     3.8170 h1         1 DDO      -0.019300
     21 HE2          0.3890    -2.4970     4.3280 h1         1 DDO      -0.019300
     22 HOZ          1.6520    -3.2760     6.1120 ho         1 DDO       0.393000
     23 HN3         -0.3340     0.7370    -0.5890 hn         1 DDO       0.215467
@<TRIPOS>BOND
     1     1     2 1   
     2     1    11 1   
     3     1    12 1   
     4     1    23 1   
     5     2     3 1   
     6     2     8 1   
     7     2    13 1   
     8     3     4 1   
     9     3    14 1   
    10     3    15 1   
    11     4     5 1   
    12     4    16 1   
    13     4    17 1   
    14     5     6 1   
    15     5    18 1   
    16     5    19 1   
    17     6     7 1   
    18     6    20 1   
    19     6    21 1   
    20     7    22 1   
    21     8     9 1   
    22     8    10 1   
@<TRIPOS>SUBSTRUCTURE
     1 DDO         1 TEMP              0 ****  ****    0 ROOT
