@<TRIPOS>MOLECULE
molecule
   16    16     1     0     0
SMALL
bcc


@<TRIPOS>ATOM
      1 C5           0.0000     0.0000     0.0000 ca         1 DDP      -0.163000
      2 N7          -0.7220     0.0010    -1.2080 nv         1 DDP      -0.949200
      3 C4           1.3940     0.0000     0.0000 ca         1 DDP       0.721100
      4 N3           2.0400     0.0000     1.1600 nb         1 DDP      -0.892500
      5 C2           1.3770    -0.0010     2.3060 ca         1 DDP       1.000900
      6 N2           2.0890    -0.0000     3.4970 nv         1 DDP      -0.990500
      7 N1           0.0540    -0.0050     2.3460 nb         1 DDP      -0.892500
      8 C6          -0.6610     0.0010     1.2280 ca         1 DDP       0.721100
      9 O6          -2.0170     0.0010     1.2780 oh         1 DDP      -0.592800
     10 O9           2.0820    -0.0000    -1.1700 oh         1 DDP      -0.592800
     11 H71         -0.9780    -0.8660    -1.6380 hn         1 DDP       0.426800
     12 H72         -0.9790     0.8680    -1.6370 hn         1 DDP       0.426800
     13 H21          1.6010    -0.0010     4.3710 hn         1 DDP       0.451800
     14 H22          3.0890     0.0030     3.4820 hn         1 DDP       0.451800
     15 H61         -2.3030    -0.4800     2.0370 ho         1 DDP       0.437000
     16 H91          2.8750    -0.5000    -1.0690 ho         1 DDP       0.437000
@<TRIPOS>BOND
     1     1     2 1
     2     1     3 ar
     3     1     8 ar
     4     2    11 1
     5     2    12 1
     6     3     4 ar
     7     3    10 1
     8     4     5 ar
     9     5     6 1
    10     5     7 ar
    11     6    13 1
    12     6    14 1
    13     7     8 ar
    14     8     9 1
    15     9    15 1
    16    10    16 1
@<TRIPOS>SUBSTRUCTURE
     1 DDP         1 TEMP              0 ****  ****    0 ROOT
