@<TRIPOS>MOLECULE
molecule
   41    40     1     0     0
SMALL
bcc


@<TRIPOS>ATOM
      1 N1           0.0000     0.0000     0.0000 n4         1 DDQ      -0.287600
      2 O1           1.4630     0.0000     0.0000 o          1 DDQ      -0.637000
      3 CM1         -0.4900     0.0000     1.3840 c3         1 DDQ       0.122100
      4 CM2         -0.4900    -1.2000    -0.6920 c3         1 DDQ       0.122100
      5 C1          -0.4900     1.2000    -0.6930 c3         1 DDQ       0.135800
      6 C2           0.0200     2.4480     0.0280 c3         1 DDQ      -0.090400
      7 C3          -0.4900     3.6980    -0.6930 c3         1 DDQ      -0.082400
      8 C4           0.0200     4.9480     0.0270 c3         1 DDQ      -0.079400
      9 C5          -0.4890     6.1960    -0.6940 c3         1 DDQ      -0.082400
     10 C6           0.0210     7.4460     0.0280 c3         1 DDQ      -0.081400
     11 C7          -0.4900     8.6950    -0.6950 c3         1 DDQ      -0.082400
     12 C8           0.0210     9.9440     0.0260 c3         1 DDQ      -0.082400
     13 C9          -0.4890    11.1940    -0.6950 c3         1 DDQ      -0.084400
     14 C10          0.0210    12.4420     0.0270 c3         1 DDQ      -0.092100
     15 HM11        -0.4780    -1.0120     1.7720 hx         1 DDQ       0.061533
     16 HM12         0.1490     0.6280     1.9940 hx         1 DDQ       0.061533
     17 HM13        -1.5030     0.3840     1.4090 hx         1 DDQ       0.061533
     18 HM21        -0.1440    -1.1910    -1.7190 hx         1 DDQ       0.061533
     19 HM22        -0.1140    -2.0840    -0.1920 hx         1 DDQ       0.061533
     20 HM23        -1.5730    -1.2090    -0.6760 hx         1 DDQ       0.061533
     21 H11         -0.1280     1.2000    -1.7140 hx         1 DDQ       0.059700
     22 H12         -1.5730     1.2000    -0.6940 hx         1 DDQ       0.059700
     23 H21          1.1030     2.4480     0.0290 hc         1 DDQ       0.067200
     24 H22         -0.3410     2.4480     1.0500 hc         1 DDQ       0.067200
     25 H31         -0.1290     3.6970    -1.7140 hc         1 DDQ       0.039700
     26 H32         -1.5730     3.6980    -0.6930 hc         1 DDQ       0.039700
     27 H41          1.1040     4.9480     0.0270 hc         1 DDQ       0.044700
     28 H42         -0.3410     4.9480     1.0490 hc         1 DDQ       0.044700
     29 H51         -1.5720     6.1960    -0.6950 hc         1 DDQ       0.040700
     30 H52         -0.1280     6.1960    -1.7150 hc         1 DDQ       0.040700
     31 H61          1.1040     7.4460     0.0280 hc         1 DDQ       0.042200
     32 H62         -0.3410     7.4460     1.0490 hc         1 DDQ       0.042200
     33 H71         -0.1290     8.6950    -1.7160 hc         1 DDQ       0.040700
     34 H72         -1.5730     8.6960    -0.6950 hc         1 DDQ       0.040700
     35 H81          1.1040     9.9440     0.0260 hc         1 DDQ       0.041200
     36 H82         -0.3400     9.9440     1.0480 hc         1 DDQ       0.041200
     37 H91         -0.1270    11.1940    -1.7160 hc         1 DDQ       0.039700
     38 H92         -1.5720    11.1940    -0.6960 hc         1 DDQ       0.039700
     39 H101        -0.3470    12.4460     1.0450 hc         1 DDQ       0.032700
     40 H102        -0.3330    13.3270    -0.4890 hc         1 DDQ       0.032700
     41 H103         1.1040    12.4380     0.0340 hc         1 DDQ       0.032700
@<TRIPOS>BOND
     1     1     2 1
     2     1     3 1
     3     1     4 1
     4     1     5 1
     5     3    15 1
     6     3    16 1
     7     3    17 1
     8     4    18 1
     9     4    19 1
    10     4    20 1
    11     5     6 1
    12     5    21 1
    13     5    22 1
    14     6     7 1
    15     6    23 1
    16     6    24 1
    17     7     8 1
    18     7    25 1
    19     7    26 1
    20     8     9 1
    21     8    27 1
    22     8    28 1
    23     9    10 1
    24     9    29 1
    25     9    30 1
    26    10    11 1
    27    10    31 1
    28    10    32 1
    29    11    12 1
    30    11    33 1
    31    11    34 1
    32    12    13 1
    33    12    35 1
    34    12    36 1
    35    13    14 1
    36    13    37 1
    37    13    38 1
    38    14    39 1
    39    14    40 1
    40    14    41 1
@<TRIPOS>SUBSTRUCTURE
     1 DDQ         1 TEMP              0 ****  ****    0 ROOT
