@<TRIPOS>MOLECULE
molecule
   72    71     1     0     0
SMALL
bcc


@<TRIPOS>ATOM
      1 O21          0.0000     0.0000     0.0000 o          1 DDR      -0.560000
      2 C21          1.2080     0.0000     0.0000 c          1 DDR       0.628100
      3 C22          1.9610     0.0000     1.3060 c3         1 DDR      -0.125400
      4 C23          0.9670    -0.0010     2.4680 c3         1 DDR      -0.073400
      5 C24          1.7310    -0.0010     3.7940 c3         1 DDR      -0.083400
      6 C25          0.7360    -0.0030     4.9560 c3         1 DDR      -0.080400
      7 C26          1.5000    -0.0030     6.2820 c3         1 DDR      -0.082400
      8 C27          0.5050    -0.0040     7.4450 c3         1 DDR      -0.082400
      9 C28          1.2700    -0.0040     8.7700 c3         1 DDR      -0.081400
     10 C29          0.2750    -0.0050     9.9320 c3         1 DDR      -0.084400
     11 C30          1.0390    -0.0060    11.2570 c3         1 DDR      -0.092100
     12 O52          1.8810    -0.0050    -1.1620 os         1 DDR      -0.405900
     13 C52          1.0900    -0.0100    -2.3800 c3         1 DDR       0.150100
     14 C53          0.8120     1.4300    -2.8140 c3         1 DDR       0.123400
     15 O53          2.0420     2.0690    -3.1640 oh         1 DDR      -0.582800
     16 C51          1.8610    -0.7360    -3.4840 c3         1 DDR       0.155400
     17 O51          3.0620     0.0130    -3.8080 os         1 DDR      -0.387900
     18 C1           3.8550    -0.4920    -4.7660 c          1 DDR       0.628100
     19 O1           3.5560    -1.5260    -5.3150 o          1 DDR      -0.564000
     20 C2           5.1190     0.2300    -5.1570 c3         1 DDR      -0.123400
     21 C3           5.8330    -0.5520    -6.2620 c3         1 DDR      -0.073400
     22 C4           7.1160     0.1810    -6.6570 c3         1 DDR      -0.083400
     23 C5           7.8300    -0.6010    -7.7620 c3         1 DDR      -0.080400
     24 C6           9.1130     0.1320    -8.1590 c3         1 DDR      -0.082400
     25 C7           9.8260    -0.6500    -9.2630 c3         1 DDR      -0.082400
     26 C8          11.1090     0.0830    -9.6600 c3         1 DDR      -0.081400
     27 C9          11.8230    -0.6990   -10.7640 c3         1 DDR      -0.084400
     28 C10         13.1060     0.0340   -11.1610 c3         1 DDR      -0.092100
     29 H221         2.5850    -0.8840     1.3630 hc         1 DDR       0.074200
     30 H222         2.5840     0.8850     1.3640 hc         1 DDR       0.074200
     31 H231         0.3430     0.8830     2.4110 hc         1 DDR       0.058200
     32 H232         0.3440    -0.8860     2.4100 hc         1 DDR       0.058200
     33 H241         2.3530     0.8840     3.8520 hc         1 DDR       0.041200
     34 H242         2.3540    -0.8850     3.8510 hc         1 DDR       0.041200
     35 H251         0.1130    -0.8880     4.8980 hc         1 DDR       0.043700
     36 H252         0.1120     0.8810     4.8990 hc         1 DDR       0.043700
     37 H261         2.1230    -0.8870     6.3390 hc         1 DDR       0.040700
     38 H262         2.1220     0.8820     6.3390 hc         1 DDR       0.040700
     39 H271        -0.1180     0.8800     7.3870 hc         1 DDR       0.041700
     40 H272        -0.1170    -0.8890     7.3870 hc         1 DDR       0.041700
     41 H281         1.8930    -0.8880     8.8270 hc         1 DDR       0.040700
     42 H282         1.8920     0.8810     8.8280 hc         1 DDR       0.040700
     43 H291        -0.3480    -0.8900     9.8730 hc         1 DDR       0.039700
     44 H292        -0.3480     0.8790     9.8750 hc         1 DDR       0.039700
     45 H301         0.3340    -0.0070    12.0800 hc         1 DDR       0.032700
     46 H302         1.6620     0.8780    11.3160 hc         1 DDR       0.032700
     47 H303         1.6620    -0.8910    11.3140 hc         1 DDR       0.032700
     48 H52          0.1520    -0.5200    -2.1990 h1         1 DDR       0.088700
     49 H531         0.3440     1.9690    -2.0000 h1         1 DDR       0.033700
     50 H532         0.1510     1.4270    -3.6720 h1         1 DDR       0.033700
     51 HO53         1.9080     3.0000    -3.2220 ho         1 DDR       0.395000
     52 H511         1.2370    -0.8170    -4.3660 h1         1 DDR       0.059700
     53 H512         2.1340    -1.7270    -3.1420 h1         1 DDR       0.059700
     54 H21          5.7700     0.3110    -4.2950 hc         1 DDR       0.072700
     55 H22          4.8720     1.2210    -5.5180 hc         1 DDR       0.072700
     56 H31          5.1830    -0.6340    -7.1240 hc         1 DDR       0.057700
     57 H32          6.0800    -1.5430    -5.9010 hc         1 DDR       0.057700
     58 H41          6.8690     1.1720    -7.0180 hc         1 DDR       0.040200
     59 H42          7.7660     0.2630    -5.7950 hc         1 DDR       0.040200
     60 H51          7.1790    -0.6830    -8.6240 hc         1 DDR       0.043700
     61 H52A         8.0770    -1.5920    -7.4010 hc         1 DDR       0.043700
     62 H61          8.8660     1.1230    -8.5200 hc         1 DDR       0.040700
     63 H62          9.7630     0.2140    -7.2960 hc         1 DDR       0.040700
     64 H71          9.1760    -0.7320   -10.1260 hc         1 DDR       0.041700
     65 H72         10.0730    -1.6410    -8.9020 hc         1 DDR       0.041700
     66 H81         10.8620     1.0740   -10.0210 hc         1 DDR       0.040700
     67 H82         11.7600     0.1640    -8.7970 hc         1 DDR       0.040700
     68 H91         12.0700    -1.6900   -10.4030 hc         1 DDR       0.039700
     69 H92         11.1730    -0.7810   -11.6270 hc         1 DDR       0.039700
     70 H101        12.8590     1.0250   -11.5220 hc         1 DDR       0.032367
     71 H102        13.7570     0.1160   -10.2990 hc         1 DDR       0.032367
     72 H103        13.6110    -0.5200   -11.9430 hc         1 DDR       0.032367
@<TRIPOS>BOND
     1    11    10 1
     2    10     9 1
     3    26    27 1
     4    26    25 1
     5    28    27 1
     6     9     8 1
     7    25    24 1
     8    24    23 1
     9     8     7 1
    10    23    22 1
    11     7     6 1
    12    22    21 1
    13     6     5 1
    14    21    20 1
    15    20    18 1
    16     5     4 1
    17     4     3 1
    18    18    19 2
    19    18    17 1
    20     1     2 2
    21     3     2 1
    22    17    16 1
    23     2    12 1
    24    12    13 1
    25    16    13 1
    26    13    14 1
    27    14    15 1
    28     3    29 1
    29     3    30 1
    30     4    31 1
    31     4    32 1
    32     5    33 1
    33     5    34 1
    34     6    35 1
    35     6    36 1
    36     7    37 1
    37     7    38 1
    38     8    39 1
    39     8    40 1
    40     9    41 1
    41     9    42 1
    42    10    43 1
    43    10    44 1
    44    11    45 1
    45    11    46 1
    46    11    47 1
    47    13    48 1
    48    14    49 1
    49    14    50 1
    50    15    51 1
    51    16    52 1
    52    16    53 1
    53    20    54 1
    54    20    55 1
    55    21    56 1
    56    21    57 1
    57    22    58 1
    58    22    59 1
    59    23    60 1
    60    23    61 1
    61    24    62 1
    62    24    63 1
    63    25    64 1
    64    25    65 1
    65    26    66 1
    66    26    67 1
    67    27    68 1
    68    27    69 1
    69    28    70 1
    70    28    71 1
    71    28    72 1
@<TRIPOS>SUBSTRUCTURE
     1 DDR         1 TEMP              0 ****  ****    0 ROOT
