@<TRIPOS>MOLECULE
DDR
   72    71     1     0     0
SMALL
bcc


@<TRIPOS>ATOM
      1 O21        -0.3440    0.8210   -0.4010 o         1 DDR     -0.543000
      2 C21         0.8490    0.5770   -0.2170 c         1 DDR      0.642100
      3 C22         1.6500    0.6500    1.0450 c3        1 DDR     -0.126400
      4 C23         0.8160    0.2470    2.2430 c3        1 DDR     -0.079400
      5 C24         1.5880    0.4560    3.5280 c3        1 DDR     -0.078400
      6 C25         0.7680    0.0380    4.7290 c3        1 DDR     -0.079400
      7 C26         1.5360    0.2500    6.0170 c3        1 DDR     -0.079400
      8 C27         0.7180   -0.1680    7.2190 c3        1 DDR     -0.079400
      9 C28         1.4850    0.0430    8.5060 c3        1 DDR     -0.079400
     10 C29         0.6670   -0.3740    9.7100 c3        1 DDR     -0.080400
     11 C30         1.4280   -0.1640   10.9940 c3        1 DDR     -0.093100
     12 O52         1.6080    0.1830   -1.2900 os        1 DDR     -0.435900
     13 C52         0.9760    0.1600   -2.5790 c3        1 DDR      0.102100
     14 C53         0.9910    1.5640   -3.1880 c3        1 DDR      0.122400
     15 O53         2.1290    2.3100   -2.8200 oh        1 DDR     -0.595800
     16 C51         1.7440   -0.8700   -3.4050 c3        1 DDR      0.136400
     17 O51         2.9960   -0.2800   -3.7820 os        1 DDR     -0.455900
     18 C1          3.9260   -1.1110   -4.3520 c         1 DDR      0.637100
     19 O1          3.6140   -2.2890   -4.5330 o         1 DDR     -0.536000
     20 C2          5.2120   -0.4090   -4.6520 c3        1 DDR     -0.127400
     21 C3          5.7730   -0.8510   -5.9880 c3        1 DDR     -0.079400
     22 C4          7.1400   -0.2450   -6.2210 c3        1 DDR     -0.079400
     23 C5          7.7010   -0.6680   -7.5620 c3        1 DDR     -0.079400
     24 C6          9.0700   -0.0680   -7.7970 c3        1 DDR     -0.079400
     25 C7          9.6320   -0.4910   -9.1380 c3        1 DDR     -0.079400
     26 C8         11.0020    0.1080   -9.3730 c3        1 DDR     -0.079400
     27 C9         11.5660   -0.3150  -10.7130 c3        1 DDR     -0.080400
     28 C10        12.9300    0.2790  -10.9510 c3        1 DDR     -0.093100
     29 H221        2.5560   -0.0050    0.9550 hc        1 DDR      0.081200
     30 H222        2.0030    1.7120    1.1510 hc        1 DDR      0.081200
     31 H231       -0.1300    0.8510    2.2600 hc        1 DDR      0.057200
     32 H232        0.5190   -0.8300    2.1500 hc        1 DDR      0.057200
     33 H241        2.5410   -0.1360    3.4970 hc        1 DDR      0.041700
     34 H242        1.8740    1.5370    3.6250 hc        1 DDR      0.041700
     35 H251        0.4850   -1.0430    4.6340 hc        1 DDR      0.042700
     36 H252       -0.1850    0.6290    4.7580 hc        1 DDR      0.042700
     37 H261        2.4900   -0.3410    5.9870 hc        1 DDR      0.040200
     38 H262        1.8200    1.3310    6.1120 hc        1 DDR      0.040200
     39 H271       -0.2360    0.4220    7.2480 hc        1 DDR      0.040200
     40 H272        0.4340   -1.2490    7.1240 hc        1 DDR      0.040200
     41 H281        1.7690    1.1250    8.6020 hc        1 DDR      0.039700
     42 H282        2.4390   -0.5470    8.4770 hc        1 DDR      0.039700
     43 H291       -0.2860    0.2170    9.7360 hc        1 DDR      0.038700
     44 H292        0.3830   -1.4550    9.6120 hc        1 DDR      0.038700
     45 H301        1.6980    0.9120   11.1220 hc        1 DDR      0.032700
     46 H302        2.3700   -0.7640   10.9970 hc        1 DDR      0.032700
     47 H303        0.8070   -0.4780   11.8680 hc        1 DDR      0.032700
     48 H52        -0.0880   -0.1960   -2.4740 h1        1 DDR      0.087700
     49 H531        0.1220    2.1590   -2.7960 h1        1 DDR      0.056700
     50 H532        0.9300    1.4780   -4.3060 h1        1 DDR      0.056700
     51 HO53        2.9030    1.7460   -2.9510 ho        1 DDR      0.416000
     52 H511        1.9340   -1.8020   -2.8120 h1        1 DDR      0.068200
     53 H512        1.1750   -1.1180   -4.3390 h1        1 DDR      0.068200
     54 H21         5.0490    0.7010   -4.6410 hc        1 DDR      0.079700
     55 H22         5.9300   -0.6600   -3.8250 hc        1 DDR      0.079700
     56 H31         5.8400   -1.9720   -6.0120 hc        1 DDR      0.057700
     57 H32         5.0760   -0.5420   -6.8100 hc        1 DDR      0.057700
     58 H41         7.0690    0.8740   -6.1790 hc        1 DDR      0.041700
     59 H42         7.8390   -0.5640   -5.4040 hc        1 DDR      0.041700
     60 H51         7.0030   -0.3470   -8.3800 hc        1 DDR      0.042700
     61 H52A        7.7670   -1.7880   -7.6050 hc        1 DDR      0.042700
     62 H61         9.7670   -0.3900   -6.9790 hc        1 DDR      0.039700
     63 H62         9.0030    1.0510   -7.7540 hc        1 DDR      0.039700
     64 H71         9.6980   -1.6100   -9.1810 hc        1 DDR      0.040200
     65 H72         8.9350   -0.1690   -9.9560 hc        1 DDR      0.040200
     66 H81        11.6990   -0.2140   -8.5540 hc        1 DDR      0.039700
     67 H82        10.9360    1.2270   -9.3290 hc        1 DDR      0.039700
     68 H91        11.6290   -1.4340  -10.7550 hc        1 DDR      0.038700
     69 H92        10.8670    0.0060  -11.5300 hc        1 DDR      0.038700
     70 H101       12.8820    1.3950  -10.9380 hc        1 DDR      0.032700
     71 H102       13.6460   -0.0490  -10.1600 hc        1 DDR      0.032700
     72 H103       13.3260   -0.0450  -11.9430 hc        1 DDR      0.032700
@<TRIPOS>BOND
     1    1    2 2   
     2    2    3 1   
     3    2   12 1   
     4    3    4 1   
     5    3   29 1   
     6    3   30 1   
     7    4    5 1   
     8    4   31 1   
     9    4   32 1   
    10    5    6 1   
    11    5   33 1   
    12    5   34 1   
    13    6    7 1   
    14    6   35 1   
    15    6   36 1   
    16    7    8 1   
    17    7   37 1   
    18    7   38 1   
    19    8    9 1   
    20    8   39 1   
    21    8   40 1   
    22    9   10 1   
    23    9   41 1   
    24    9   42 1   
    25   10   11 1   
    26   10   43 1   
    27   10   44 1   
    28   11   45 1   
    29   11   46 1   
    30   11   47 1   
    31   12   13 1   
    32   13   14 1   
    33   13   16 1   
    34   13   48 1   
    35   14   15 1   
    36   14   49 1   
    37   14   50 1   
    38   15   51 1   
    39   16   17 1   
    40   16   52 1   
    41   16   53 1   
    42   17   18 1   
    43   18   19 2   
    44   18   20 1   
    45   20   21 1   
    46   20   54 1   
    47   20   55 1   
    48   21   22 1   
    49   21   56 1   
    50   21   57 1   
    51   22   23 1   
    52   22   58 1   
    53   22   59 1   
    54   23   24 1   
    55   23   60 1   
    56   23   61 1   
    57   24   25 1   
    58   24   62 1   
    59   24   63 1   
    60   25   26 1   
    61   25   64 1   
    62   25   65 1   
    63   26   27 1   
    64   26   66 1   
    65   26   67 1   
    66   27   28 1   
    67   27   68 1   
    68   27   69 1   
    69   28   70 1   
    70   28   71 1   
    71   28   72 1   
@<TRIPOS>SUBSTRUCTURE
     1 DDR         1 TEMP              0 ****  ****    0 ROOT
