@<TRIPOS>MOLECULE
molecule
   41    43     1     0     0
SMALL
bcc


@<TRIPOS>ATOM
      1 N1           0.0000     0.0000     0.0000 nb         1 DDS      -0.784000
      2 C2           1.3200     0.0000     0.0000 ca         1 DDS       0.601900
      3 N3           2.0270     0.0000     1.1110 nb         1 DDS      -0.811000
      4 C4           1.4260     0.0010     2.2960 ca         1 DDS       0.451800
      5 C5           0.0210     0.0000     2.3490 ca         1 DDS      -0.160200
      6 C6          -0.6880     0.0010     1.1370 ca         1 DDS       0.624200
      7 N6          -2.0730     0.0010     1.1260 nv         1 DDS      -1.060500
      8 N7          -0.3290    -0.0000     3.6580 nc         1 DDS      -0.619100
      9 C8           0.7450     0.0010     4.3930 cd         1 DDS       0.410700
     10 N9           1.8530     0.0010     3.5990 na         1 DDS      -0.253000
     11 PA           4.4130    -1.6780     9.5620 p5         1 DDS       1.442800
     12 PB           5.3620    -4.1190    10.9510 p5         1 DDS       1.525800
     13 PG           5.3330    -7.0640    11.2920 p5         1 DDS       1.345900
     14 C1'          3.2460     0.0000     4.0550 c3         1 DDS       0.254800
     15 O1A          5.2750    -0.7940    10.3800 o          1 DDS      -0.855000
     16 O1B          4.4000    -3.9440    12.0620 o          1 DDS      -0.876500
     17 O1G          6.1620    -6.9660    12.5140 o          1 DDS      -0.831500
     18 C2'          3.7830     1.4440     4.0970 c3         1 DDS      -0.133400
     19 O2A          2.8910    -1.5650    10.0740 o          1 DDS      -0.855000
     20 O2B          6.8320    -3.6830    11.4400 o          1 DDS      -0.876500
     21 O2G          3.8110    -7.3950    11.7000 o          1 DDS      -0.831500
     22 C3'          4.2120     1.6440     5.5720 c3         1 DDS      -0.124400
     23 O3A          4.9160    -3.2010     9.7060 os         1 DDS      -0.725800
     24 O3B          5.3830    -5.6630    10.4970 os         1 DDS      -0.735800
     25 O3G          5.9030    -8.2370    10.3490 o          1 DDS      -0.831500
     26 C4'          4.3860     0.1850     6.0620 c3         1 DDS       0.132100
     27 O4'          3.3220    -0.5240     5.3910 os         1 DDS      -0.373600
     28 C5'          4.2150     0.1030     7.5800 c3         1 DDS       0.241400
     29 O5'          4.4950    -1.2280     8.0190 os         1 DDS      -0.590200
     30 H2           1.8480     0.0050    -0.9460 h5         1 DDS       0.016100
     31 HN6         -2.5730     0.8670     1.1080 hn         1 DDS       0.407300
     32 HN6A        -2.5730    -0.8660     1.1070 hn         1 DDS       0.407300
     33 H8           0.7560     0.0010     5.4760 h5         1 DDS       0.099800
     34 H1'          3.8560    -0.5990     3.3900 h2         1 DDS       0.071700
     35 H2'          4.6360     1.5490     3.4380 hc         1 DDS       0.044200
     36 H2'A         3.0020     2.1460     3.8320 hc         1 DDS       0.044200
     37 H3'          3.4340     2.1480     6.1330 hc         1 DDS       0.046200
     38 H3'A         5.1500     2.1830     5.6290 hc         1 DDS       0.046200
     39 H4'          5.3500    -0.2040     5.7590 h1         1 DDS       0.056700
     40 H5'          4.9010     0.7920     8.0580 h1         1 DDS       0.029200
     41 H5'A         3.1980     0.3640     7.8430 h1         1 DDS       0.029200
@<TRIPOS>BOND
     1     1     2 ar
     2     1     6 ar
     3     2     3 ar
     4     3     4 ar
     5     4     5 ar
     6     4    10 1
     7     5     6 ar
     8     5     8 1
     9     6     7 1
    10     8     9 2
    11     9    10 1
    12    10    14 1
    13    11    15 1
    14    11    19 1
    15    11    23 1
    16    11    29 1
    17    12    16 1
    18    12    20 1
    19    12    23 1
    20    12    24 1
    21    13    17 1
    22    13    21 1
    23    13    24 1
    24    13    25 1
    25    14    18 1
    26    14    27 1
    27    18    22 1
    28    22    26 1
    29    26    27 1
    30    26    28 1
    31    28    29 1
    32     2    30 1
    33     7    31 1
    34     7    32 1
    35     9    33 1
    36    14    34 1
    37    18    35 1
    38    18    36 1
    39    22    37 1
    40    22    38 1
    41    26    39 1
    42    28    40 1
    43    28    41 1
@<TRIPOS>SUBSTRUCTURE
     1 DDS         1 TEMP              0 ****  ****    0 ROOT
