@<TRIPOS>MOLECULE
molecule
   77    81     1     0     0
SMALL
bcc


@<TRIPOS>ATOM
      1 C1           0.0000     0.0000     0.0000 ca         1 DDT       0.062600
      2 C2           1.3780     0.0000     0.0000 ca         1 DDT      -0.166000
      3 C3           2.0900     0.0000     1.1960 ca         1 DDT      -0.098000
      4 C4           1.4470    -0.0000     2.3960 ca         1 DDT      -0.092000
      5 C4A          0.0430    -0.0010     2.4410 ca         1 DDT       0.063000
      6 C5          -0.6470    -0.0000     3.6650 ca         1 DDT      -0.286500
      7 C6          -2.0080    -0.0050     3.6710 ca         1 DDT      -0.008000
      8 C7          -2.7300     0.0010     2.4800 ca         1 DDT      -0.172000
      9 C8          -2.0960     0.0060     1.2760 ca         1 DDT      -0.045000
     10 C8A         -0.6930     0.0050     1.2300 ca         1 DDT      -0.031000
     11 C9          -0.3080     1.2160    -1.9220 c3         1 DDT       0.128600
     12 C10         -0.1980    -1.1360    -1.9860 c3         1 DDT       0.128600
     13 N1          -0.7020    -0.0010    -1.2020 nh         1 DDT      -0.564000
     14 C11          0.3640     2.6860     5.3680 c3         1 DDT       0.143500
     15 C12          0.6110     3.4990     4.1230 c          1 DDT       0.878600
     16 C13          0.8600     3.4630     6.5900 c3         1 DDT      -0.041100
     17 C14          0.6130     2.6510     7.8360 ca         1 DDT      -0.028300
     18 C15          1.5810     1.7730     8.2880 ca         1 DDT      -0.115500
     19 C16          1.3570     1.0270     9.4290 ca         1 DDT      -0.099000
     20 C17          0.1610     1.1600    10.1200 ca         1 DDT       0.029100
     21 C18         -0.8070     2.0420     9.6630 ca         1 DDT      -0.099000
     22 C19         -0.5760     2.7880     8.5240 ca         1 DDT      -0.115500
     23 S            0.2440    -0.0080     5.1840 sy         1 DDT       1.427200
     24 O1          -0.7370     0.0600     6.2100 o          1 DDT      -0.664300
     25 O2           1.2250    -1.0280     5.0510 o          1 DDT      -0.664300
     26 N            1.0860     1.4150     5.2720 n7         1 DDT      -0.881100
     27 OC1         -0.2340     4.2660     3.7260 o          1 DDT      -0.831800
     28 OC2          1.7680     3.3690     3.4560 o          1 DDT      -0.831800
     29 O           -0.0600     0.4280    11.2430 os         1 DDT      -0.427800
     30 S'           0.4520     1.2520    12.4150 sy         1 DDT       1.529800
     31 O1'          0.7120     0.3220    13.4570 o          1 DDT      -0.644800
     32 O2'          1.4000     2.1570    11.8650 o          1 DDT      -0.644800
     33 C1'         -3.8960     1.9730    15.1540 ca         1 DDT       0.071600
     34 C2'         -3.7890     0.6580    15.5470 ca         1 DDT      -0.175000
     35 C3'         -2.7340    -0.1340    15.1020 ca         1 DDT      -0.105000
     36 C4'         -1.7820     0.3660    14.2690 ca         1 DDT      -0.142000
     37 C4X         -1.8570     1.7030    13.8400 ca         1 DDT       0.047000
     38 C5'         -0.8860     2.2470    12.9830 ca         1 DDT      -0.324500
     39 C6'         -0.9860     3.5480    12.5920 ca         1 DDT       0.006000
     40 C7'         -2.0360     4.3490    13.0310 ca         1 DDT      -0.172000
     41 C8'         -2.9930     3.8560    13.8650 ca         1 DDT      -0.041000
     42 C8X         -2.9220     2.5200    14.2900 ca         1 DDT      -0.043000
     43 C9'         -6.1890     2.1080    15.1440 c3         1 DDT       0.128600
     44 CA'         -4.9520     2.6670    17.0720 c3         1 DDT       0.128600
     45 HC2          1.9130     0.0000    -0.9420 ha         1 DDT       0.119000
     46 HC3          3.1730    -0.0000     1.1710 ha         1 DDT       0.127000
     47 HC4          2.0180    -0.0000     3.3170 ha         1 DDT       0.156000
     48 HC6         -2.5380    -0.0090     4.6160 ha         1 DDT       0.146000
     49 HC7         -3.8130    -0.0030     2.5120 ha         1 DDT       0.121000
     50 HC8         -2.6700     0.0110     0.3580 ha         1 DDT       0.142000
     51 HC91        -1.0200     1.4140    -2.7140 h1         1 DDT       0.036200
     52 HC92         0.6780     1.0800    -2.3490 h1         1 DDT       0.036200
     53 HC93        -0.2920     2.0540    -1.2350 h1         1 DDT       0.036200
     54 H101         0.7530    -0.8730    -2.4330 h1         1 DDT       0.036200
     55 H102        -0.0670    -1.9930    -1.3370 h1         1 DDT       0.036200
     56 H103        -0.9080    -1.3800    -2.7670 h1         1 DDT       0.036200
     57 HC11        -0.6970     2.4930     5.4690 h1         1 DDT       0.060700
     58 H131         0.3280     4.4040     6.6610 hc         1 DDT       0.064700
     59 H132         1.9210     3.6550     6.4890 hc         1 DDT       0.064700
     60 HC15         2.5140     1.6690     7.7480 ha         1 DDT       0.142000
     61 HC16         2.1140     0.3390     9.7840 ha         1 DDT       0.134000
     62 HC18        -1.7410     2.1480    10.2010 ha         1 DDT       0.134000
     63 HC19        -1.3320     3.4770     8.1670 ha         1 DDT       0.142000
     64 H            2.0860     1.4030     5.3040 hn         1 DDT       0.457800
     65 H2'1        -4.5340     0.2340    16.2100 ha         1 DDT       0.126000
     66 H3'1        -2.6700    -1.1670    15.4240 ha         1 DDT       0.130000
     67 H4'1        -0.9690    -0.2660    13.9330 ha         1 DDT       0.187000
     68 H6'1        -0.2380     3.9640    11.9280 ha         1 DDT       0.159000
     69 H7'1        -2.0930     5.3810    12.7050 ha         1 DDT       0.135000
     70 H8'1        -3.8040     4.4910    14.1990 ha         1 DDT       0.151000
     71 H9'1        -7.0130     2.8070    15.2150 h1         1 DDT       0.038533
     72 H9'2        -6.4000     1.2380    15.7560 h1         1 DDT       0.038533
     73 H9'3        -6.0620     1.8020    14.1130 h1         1 DDT       0.038533
     74 HB1         -5.5260     3.4880    17.4850 h1         1 DDT       0.038533
     75 HB2         -5.4040     1.7270    17.3650 h1         1 DDT       0.038533
     76 HB3         -3.9370     2.7120    17.4460 h1         1 DDT       0.038533
     77 N1'         -4.9550     2.7580    15.6060 nh         1 DDT      -0.565000
@<TRIPOS>BOND
     1     1     2 ar
     2     1    10 ar
     3     1    13 1
     4     2     3 ar
     5     2    45 1
     6     3     4 ar
     7     3    46 1
     8     4     5 ar
     9     4    47 1
    10     5     6 ar
    11     5    10 ar
    12     6     7 ar
    13     6    23 1
    14     7     8 ar
    15     7    48 1
    16     8     9 ar
    17     8    49 1
    18     9    10 ar
    19     9    50 1
    20    11    13 1
    21    11    51 1
    22    11    52 1
    23    11    53 1
    24    12    13 1
    25    12    54 1
    26    12    55 1
    27    12    56 1
    28    14    15 1
    29    14    16 1
    30    14    26 1
    31    14    57 1
    32    15    27 1
    33    15    28 1
    34    16    17 1
    35    16    58 1
    36    16    59 1
    37    17    18 ar
    38    17    22 ar
    39    18    19 ar
    40    18    60 1
    41    19    20 ar
    42    19    61 1
    43    20    21 ar
    44    20    29 1
    45    21    22 ar
    46    21    62 1
    47    22    63 1
    48    23    24 2
    49    23    25 2
    50    23    26 1
    51    26    64 1
    52    29    30 1
    53    30    31 2
    54    30    32 2
    55    30    38 1
    56    33    34 ar
    57    33    42 ar
    58    33    77 1
    59    34    35 ar
    60    34    65 1
    61    35    36 ar
    62    35    66 1
    63    36    37 ar
    64    36    67 1
    65    37    38 ar
    66    37    42 ar
    67    38    39 ar
    68    39    40 ar
    69    39    68 1
    70    40    41 ar
    71    40    69 1
    72    41    42 ar
    73    41    70 1
    74    43    77 1
    75    43    71 1
    76    43    72 1
    77    43    73 1
    78    44    77 1
    79    44    74 1
    80    44    75 1
    81    44    76 1
@<TRIPOS>SUBSTRUCTURE
     1 DDT         1 TEMP              0 ****  ****    0 ROOT
