@<TRIPOS>MOLECULE
DDU
   27    28     1     0     0
SMALL
bcc


@<TRIPOS>ATOM
      1 N1           0.0000     0.0000     0.0000 n          1 DDU       0.046000
      2 C2           1.3450     0.0000     0.0000 c          1 DDU       0.594500
      3 N3           2.0360     0.0000     1.1550 ns         1 DDU      -0.131500
      4 C4           1.3860    -0.0110     2.3370 c          1 DDU       0.614700
      5 C5          -0.0280    -0.0170     2.3500 cc         1 DDU      -0.297200
      6 C6          -0.6970    -0.0110     1.1770 cd         1 DDU      -0.083400
      7 O2           1.9440     0.0090    -1.0570 o          1 DDU      -0.693500
      8 O4           2.0100    -0.0170     3.3820 o          1 DDU      -0.656500
      9 C1'         -0.7250     0.0060    -1.2730 c3         1 DDU       0.238500
     10 C2'         -0.2900     1.2090    -2.1460 c3         1 DDU      -0.117400
     11 C3'         -0.6280     0.7110    -3.5760 c3         1 DDU       0.160100
     12 C4'         -0.6840    -0.8220    -3.4350 c3         1 DDU       0.173100
     13 O3'         -1.8920     1.2270    -4.0010 oh         1 DDU      -0.584800
     14 O4'         -0.3600    -1.1390    -2.0700 os         1 DDU      -0.391600
     15 C5'          0.3340    -1.4680    -4.3760 c3         1 DDU      -0.003100
     16 HN3          3.0360     0.0020     1.1370 hn         1 DDU       0.206500
     17 H5          -0.5680    -0.0260     3.2890 ha         1 DDU       0.150000
     18 H6          -1.7810    -0.0130     1.1680 h4         1 DDU       0.133000
     19 H1'         -1.7950     0.0260    -1.1080 h2         1 DDU       0.037700
     20 H2'1        -0.8680     2.0910    -1.9000 hc         1 DDU       0.057200
     21 H2'2         0.7730     1.3930    -2.0450 hc         1 DDU       0.057200
     22 H3'          0.1550     0.9960    -4.2680 h1         1 DDU       0.021700
     23 H4'         -1.6820    -1.1740    -3.6650 h1         1 DDU       0.030700
     24 HO3'        -1.7570     1.8800    -4.6670 ho         1 DDU       0.395000
     25 H5'1         0.3280    -2.5420    -4.2320 hc         1 DDU       0.014700
     26 H5'2         0.0730    -1.2390    -5.4020 hc         1 DDU       0.014700
     27 H5'3         1.3220    -1.0810    -4.1600 hc         1 DDU       0.014700
@<TRIPOS>BOND
     1     1     2 1   
     2     1     6 1   
     3     1     9 1   
     4     2     3 1   
     5     2     7 2   
     6     3     4 1   
     7     3    16 1   
     8     4     5 1   
     9     4     8 2   
    10     5     6 2   
    11     5    17 1   
    12     6    18 1   
    13     9    10 1   
    14     9    14 1   
    15     9    19 1   
    16    10    11 1   
    17    10    20 1   
    18    10    21 1   
    19    11    12 1   
    20    11    13 1   
    21    11    22 1   
    22    12    14 1   
    23    12    15 1   
    24    12    23 1   
    25    13    24 1   
    26    15    25 1   
    27    15    26 1   
    28    15    27 1   
@<TRIPOS>SUBSTRUCTURE
     1 DDU         1 TEMP              0 ****  ****    0 ROOT
