@<TRIPOS>MOLECULE
DDW
   29    28     1     0     0
SMALL
bcc


@<TRIPOS>ATOM
      1 C2           0.0000     0.0000     0.0000 c3         1 DDW      -0.058200
      2 C3           1.5300     0.0000     0.0000 c3         1 DDW      -0.037400
      3 C4           2.0390     0.0000     1.4430 c3         1 DDW      -0.015400
      4 C5           3.5690    -0.0000     1.4430 c3         1 DDW      -0.053400
      5 C6           4.0790     0.0010     2.8860 c3         1 DDW       0.004600
      6 N1          -0.4890    -0.0010    -1.3860 nz         1 DDW       0.081400
      7 C7           5.6090     0.0010     2.8870 c3         1 DDW      -0.145700
      8 C10          6.1110    -1.2870     2.2870 c          1 DDW       0.971600
      9 O12          7.4320    -1.5080     2.1840 o          1 DDW      -0.871800
     10 O11          5.3270    -2.1190     1.8980 o          1 DDW      -0.871800
     11 C8           6.1180     0.1270     4.3240 c3         1 DDW       0.146700
     12 S9           7.9260     0.2760     4.3140 sh         1 DDW      -0.345900
     13 H1          -0.3610     0.8850     0.5100 hx         1 DDW       0.081700
     14 H2          -0.3610    -0.8840     0.5110 hx         1 DDW       0.081700
     15 H3           1.8910    -0.8850    -0.5110 hc         1 DDW       0.035700
     16 H4           1.8910     0.8850    -0.5110 hc         1 DDW       0.035700
     17 H5           1.6780     0.8850     1.9540 hc         1 DDW       0.017700
     18 H6           1.6780    -0.8850     1.9540 hc         1 DDW       0.017700
     19 H7           3.9300    -0.8850     0.9330 hc         1 DDW       0.047700
     20 H8           3.9300     0.8840     0.9320 hc         1 DDW       0.047700
     21 H9           3.7180    -0.8840     3.3970 hc         1 DDW       0.002700
     22 H10          3.7170     0.8850     3.3960 hc         1 DDW       0.002700
     23 H11         -1.4900    -0.0010    -1.3860 hn         1 DDW       0.218800
     24 H12         -0.1560    -0.8180    -1.8570 hn         1 DDW       0.218800
     25 H14          5.9700     0.8380     2.3010 hc         1 DDW       0.037700
     26 H16          5.8310    -0.7520     4.8870 h1         1 DDW       0.009700
     27 H17          5.6860     1.0080     4.7840 h1         1 DDW       0.009700
     28 H18          8.3450     0.6600     5.5140 hs         1 DDW       0.111800
     29 H13         -0.1600     0.8190    -1.8570 hn         1 DDW       0.218800
@<TRIPOS>BOND
     1     1     2 1   
     2     1     6 1   
     3     1    13 1   
     4     1    14 1   
     5     2     3 1   
     6     2    15 1   
     7     2    16 1   
     8     3     4 1   
     9     3    17 1   
    10     3    18 1   
    11     4     5 1   
    12     4    19 1   
    13     4    20 1   
    14     5     7 1   
    15     5    21 1   
    16     5    22 1   
    17     6    23 1   
    18     6    24 1   
    19     6    29 1   
    20     7     8 1   
    21     7    11 1   
    22     7    25 1   
    23     8     9 1   
    24     8    10 1   
    25    11    12 1   
    26    11    26 1   
    27    11    27 1   
    28    12    28 1   
@<TRIPOS>SUBSTRUCTURE
     1 DDW         1 TEMP              0 ****  ****    0 ROOT
