@<TRIPOS>MOLECULE
molecule
   29    28     1     0     0
SMALL
bcc


@<TRIPOS>ATOM
      1 C2           0.0000     0.0000     0.0000 c3         1 DDW       0.084800
      2 C3           1.5300     0.0000     0.0000 c3         1 DDW      -0.109400
      3 C4           2.0390     0.0000     1.4430 c3         1 DDW      -0.074400
      4 C5           3.5690    -0.0000     1.4430 c3         1 DDW      -0.081400
      5 C6           4.0790     0.0010     2.8860 c3         1 DDW      -0.048400
      6 N1          -0.4890    -0.0010    -1.3860 nz         1 DDW      -0.811600
      7 C7           5.6090     0.0010     2.8870 c3         1 DDW      -0.163700
      8 C10          6.1110    -1.2870     2.2870 c          1 DDW       0.887600
      9 O12          7.4320    -1.5080     2.1840 o          1 DDW      -0.829300
     10 O11          5.3270    -2.1190     1.8980 o          1 DDW      -0.829300
     11 C8           6.1180     0.1270     4.3240 c3         1 DDW       0.059700
     12 S9           7.9260     0.2760     4.3140 sh         1 DDW      -0.320900
     13 H1          -0.3610     0.8850     0.5100 hx         1 DDW       0.107200
     14 H2          -0.3610    -0.8840     0.5110 hx         1 DDW       0.107200
     15 H3           1.8910    -0.8850    -0.5110 hc         1 DDW       0.066200
     16 H4           1.8910     0.8850    -0.5110 hc         1 DDW       0.066200
     17 H5           1.6780     0.8850     1.9540 hc         1 DDW       0.046200
     18 H6           1.6780    -0.8850     1.9540 hc         1 DDW       0.046200
     19 H7           3.9300    -0.8850     0.9330 hc         1 DDW       0.069700
     20 H8           3.9300     0.8840     0.9320 hc         1 DDW       0.069700
     21 H9           3.7180    -0.8840     3.3970 hc         1 DDW       0.027700
     22 H10          3.7170     0.8850     3.3960 hc         1 DDW       0.027700
     23 H11         -1.4900    -0.0010    -1.3860 hn         1 DDW       0.450800
     24 H12         -0.1560    -0.8180    -1.8570 hn         1 DDW       0.450800
     25 H14          5.9700     0.8380     2.3010 hc         1 DDW       0.054700
     26 H16          5.8310    -0.7520     4.8870 h1         1 DDW       0.033700
     27 H17          5.6860     1.0080     4.7840 h1         1 DDW       0.033700
     28 H18          8.3450     0.6600     5.5140 hs         1 DDW       0.125800
     29 H13         -0.1600     0.8190    -1.8570 hn         1 DDW       0.450800
@<TRIPOS>BOND
     1     3     4 1
     2     3     2 1
     3     1     6 1
     4     1     2 1
     5     4     5 1
     6     5     7 1
     7     7    11 1
     8     7     8 1
     9    11    12 1
    10     8    10 1
    11     8     9 1
    12     1    13 1
    13     1    14 1
    14     2    15 1
    15     2    16 1
    16     3    17 1
    17     3    18 1
    18     4    19 1
    19     4    20 1
    20     5    21 1
    21     5    22 1
    22     6    23 1
    23     6    24 1
    24     7    25 1
    25    11    26 1
    26    11    27 1
    27    12    28 1
    28    29     6 1
@<TRIPOS>SUBSTRUCTURE
     1 DDW         1 TEMP              0 ****  ****    0 ROOT
