@<TRIPOS>MOLECULE
DDY
   35    36     1     0     0
SMALL
bcc


@<TRIPOS>ATOM
      1 C4         -0.7820    0.5490    0.2160 cc        1 DDY      0.740600
      2 PB          9.8450   -2.0900    2.2000 p5        1 DDY      1.592800
      3 PA          7.3610   -1.9890    4.3050 p5        1 DDY      1.594800
      4 C2         -0.2900    0.8480    2.5420 cd        1 DDY      0.422000
      5 C5          0.5730   -0.0210    0.0320 cc        1 DDY     -0.397600
      6 O2         -0.5750    1.2120    3.7230 o         1 DDY     -0.503000
      7 O3B         8.9760   -2.4690    0.8590 oh        1 DDY     -0.806400
      8 O1B        10.4820   -0.7760    1.9780 o         1 DDY     -0.889000
      9 O2B        10.6400   -3.2920    2.5370 o         1 DDY     -0.889000
     10 O3A         8.5420   -2.0000    3.1920 os        1 DDY     -0.830800
     11 O1A         6.3810   -3.0460    3.9600 o         1 DDY     -0.886000
     12 O2A         7.9130   -1.8170    5.6630 o         1 DDY     -0.886000
     13 O5'         6.5880   -0.5550    3.9590 os        1 DDY     -0.588200
     14 C5'         5.4730   -0.5770    3.1330 c3        1 DDY      0.202400
     15 C4'         4.2110   -0.2440    3.9520 c3        1 DDY      0.114100
     16 O4'         3.2880    0.4820    3.1150 os        1 DDY     -0.449600
     17 C3'         3.4800   -1.4720    4.5000 c3        1 DDY     -0.117400
     18 C2'         2.0260   -1.3050    4.0990 c3        1 DDY     -0.115400
     19 C1'         1.9330    0.1190    3.4880 c3        1 DDY      0.303500
     20 N1          1.0330    0.2550    2.3680 n         1 DDY     -0.412000
     21 C6          1.4080   -0.1350    1.1010 cd        1 DDY      0.026600
     22 N4         -1.5690    0.6250   -0.8430 n2        1 DDY     -0.977100
     23 N3         -1.1520    0.9760    1.4960 nc        1 DDY     -0.666300
     24 H5          0.8900   -0.3370   -0.9660 ha        1 DDY      0.121000
     25 H5'1        5.3630   -1.5800    2.6370 h1        1 DDY      0.034200
     26 H5'2        5.5960    0.2230    2.3480 h1        1 DDY      0.034200
     27 H4'         4.4970    0.4490    4.7920 h1        1 DDY      0.041700
     28 H3'1        3.9250   -2.4140    4.0840 hc        1 DDY      0.069200
     29 H3'2        3.5900   -1.5180    5.6110 hc        1 DDY      0.069200
     30 H2'1        1.7260   -2.0840    3.3570 hc        1 DDY      0.038700
     31 H2'2        1.3360   -1.3790    4.9730 hc        1 DDY      0.038700
     32 H1'         1.6010    0.8540    4.2810 h2        1 DDY      0.074700
     33 H6          2.4350   -0.5380    1.0060 h4        1 DDY      0.143000
     34 HN41       -2.4640    1.0220   -0.6450 hn        1 DDY      0.330400
     35 HN42        8.1650   -2.9190    1.0580 ho        1 DDY      0.422000
@<TRIPOS>BOND
     1    1    5 1   
     2    1   22 2   
     3    1   23 1   
     4    2    7 1   
     5    2    8 1   
     6    2    9 1   
     7    2   10 1   
     8    3   10 1   
     9    3   11 1   
    10    3   12 1   
    11    3   13 1   
    12    4    6 1   
    13    4   20 1   
    14    4   23 2   
    15    5   21 2   
    16    5   24 1   
    17    7   35 1   
    18   13   14 1   
    19   14   15 1   
    20   14   25 1   
    21   14   26 1   
    22   15   16 1   
    23   15   17 1   
    24   15   27 1   
    25   16   19 1   
    26   17   18 1   
    27   17   28 1   
    28   17   29 1   
    29   18   19 1   
    30   18   30 1   
    31   18   31 1   
    32   19   20 1   
    33   19   32 1   
    34   20   21 1   
    35   21   33 1   
    36   22   34 1   
@<TRIPOS>SUBSTRUCTURE
     1 DDY         1 TEMP              0 ****  ****    0 ROOT
