@<TRIPOS>MOLECULE
molecule
   36    37     1     0     0
SMALL
bcc


@<TRIPOS>ATOM
      1 C4           0.0000     0.0000     0.0000 cc         1 DDY       0.318500
      2 PB           3.8590    -5.9730     9.6250 p5         1 DDY       1.345900
      3 PA           2.3110    -4.3560     7.7520 p5         1 DDY       1.420800
      4 C2           0.0050    -0.0120     2.3110 c          1 DDY       0.847900
      5 C5           1.4100     0.0000     0.0000 cc         1 DDY      -0.346600
      6 O2          -0.6290    -0.0380     3.3540 o          1 DDY      -0.669500
      7 O3B          5.2220    -6.6230     9.6640 o          1 DDY      -0.647833
      8 O1B          2.7910    -7.0410     9.6200 o          1 DDY      -0.647833
      9 O2B          3.6850    -5.0930    10.8400 o          1 DDY      -0.647833
     10 O3A          3.7250    -5.0540     8.2540 os         1 DDY      -0.708800
     11 O1A          1.4530    -5.3940     7.0710 o          1 DDY      -0.838000
     12 O2A          1.5740    -3.7990     8.9460 o          1 DDY      -0.838000
     13 O5'          2.6470    -3.1300     6.6870 os         1 DDY      -0.592200
     14 C5'          1.5700    -2.4390     6.0970 c3         1 DDY       0.215400
     15 C4'          2.0520    -1.0830     5.5930 c3         1 DDY       0.118100
     16 O4'          2.4410    -1.1780     4.3660 os         1 DDY      -0.356600
     17 C3'          0.8230    -0.0210     5.5850 c3         1 DDY      -0.128400
     18 C2'          1.4130     0.9970     4.8410 c3         1 DDY      -0.113400
     19 C1'          2.0780     0.1570     3.7200 c3         1 DDY       0.298500
     20 N1           1.3500    -0.0000     2.3440 n          1 DDY      -0.365000
     21 C6           2.0670     0.0000     1.1840 cd         1 DDY      -0.002400
     22 N4          -0.7300     0.1140    -1.2580 nz         1 DDY      -0.709600
     23 N3          -0.6550    -0.0060     1.1540 nd         1 DDY      -0.782100
     24 H5           1.9510    -0.0800    -0.9350 ha         1 DDY       0.099000
     25 H5'1         1.1830    -3.0170     5.2660 h1         1 DDY       0.037200
     26 H5'2         0.7880    -2.2950     6.8320 h1         1 DDY       0.037200
     27 H4'          2.8600    -0.7130     6.2130 h1         1 DDY       0.031700
     28 H3'1        -0.0940    -0.5150     5.2850 hc         1 DDY       0.070200
     29 H3'2         0.7110     0.4260     6.5650 hc         1 DDY       0.070200
     30 H2'1         0.6680     1.4930     4.2310 hc         1 DDY       0.059700
     31 H2'2         1.9000     1.7060     5.4990 hc         1 DDY       0.059700
     32 H1'          2.9690     0.7560     3.5790 h2         1 DDY       0.033700
     33 H6           3.1490     0.0490     1.1960 h4         1 DDY       0.145000
     34 HN41        -1.7010    -0.0710    -1.0980 hn         1 DDY       0.394800
     35 HN42        -0.6230     1.0390    -1.6240 hn         1 DDY       0.394800
     36 H43         -0.3680    -0.5490    -1.9150 hn         1 DDY       0.394800
@<TRIPOS>BOND
     1     1     5 1
     2     1    22 1
     3     1    23 2
     4     2     7 1
     5     2     8 1
     6     2     9 1
     7     2    10 1
     8     3    10 1
     9     3    11 1
    10     3    12 1
    11     3    13 1
    12     4     6 2
    13     4    20 1
    14     4    23 1
    15     5    21 2
    16     5    24 1
    17    13    14 1
    18    14    15 1
    19    14    25 1
    20    14    26 1
    21    15    16 1
    22    15    17 1
    23    15    27 1
    24    16    19 1
    25    17    18 1
    26    17    28 1
    27    17    29 1
    28    18    19 1
    29    18    30 1
    30    18    31 1
    31    19    20 1
    32    19    32 1
    33    20    21 1
    34    21    33 1
    35    22    34 1
    36    22    35 1
    37    36    22 1
@<TRIPOS>SUBSTRUCTURE
     1 DDY         1 TEMP              0 ****  ****    0 ROOT
