@<TRIPOS>MOLECULE
DE1
   33    32     1     0     0
SMALL
bcc


@<TRIPOS>ATOM
      1 CAA         0.0110   -0.0000   -0.0060 c3        1 DE1     -0.092100
      2 CAC         1.5170   -0.0000    0.0200 c3        1 DE1     -0.080400
      3 CAE         2.0480   -0.0000    1.4380 c3        1 DE1     -0.079400
      4 CAG         3.5620    0.0000    1.4600 c3        1 DE1     -0.079400
      5 CAI         4.0910    0.0000    2.8780 c3        1 DE1     -0.079400
      6 CAK         5.6050    0.0000    2.8990 c3        1 DE1     -0.079400
      7 CAJ         6.1340    0.0000    4.3170 c3        1 DE1     -0.078400
      8 CAH         7.6480    0.0000    4.3370 c3        1 DE1     -0.078400
      9 CAF         8.1730    0.0000    5.7550 c3        1 DE1     -0.084400
     10 CAD         9.6920   -0.0000    5.7620 c3        1 DE1      0.131400
     11 OAB        10.1030   -0.0000    7.1210 oh        1 DE1     -0.601800
     12 HAA1       -0.3590    0.0000   -1.0600 hc        1 DE1      0.032700
     13 HAA2       -0.3930    0.9050    0.5090 hc        1 DE1      0.032700
     14 HAA3       -0.3930   -0.9050    0.5090 hc        1 DE1      0.032700
     15 HAC1        1.9040    0.9020   -0.5230 hc        1 DE1      0.038700
     16 HAC2        1.9040   -0.9020   -0.5230 hc        1 DE1      0.038700
     17 HAE1        1.6640   -0.9030    1.9830 hc        1 DE1      0.039700
     18 HAE2        1.6640    0.9020    1.9830 hc        1 DE1      0.039700
     19 HAG1        3.9460    0.9030    0.9150 hc        1 DE1      0.038700
     20 HAG2        3.9460   -0.9020    0.9150 hc        1 DE1      0.038700
     21 HAI1        3.7080   -0.9030    3.4220 hc        1 DE1      0.039700
     22 HAI2        3.7080    0.9030    3.4220 hc        1 DE1      0.039700
     23 HAK1        5.9890   -0.9020    2.3540 hc        1 DE1      0.039700
     24 HAK2        5.9880    0.9030    2.3540 hc        1 DE1      0.039700
     25 HAJ1        5.7510   -0.9020    4.8620 hc        1 DE1      0.041700
     26 HAJ2        5.7510    0.9030    4.8620 hc        1 DE1      0.041700
     27 HAH1        8.0310    0.9030    3.7920 hc        1 DE1      0.039700
     28 HAH2        8.0310   -0.9030    3.7920 hc        1 DE1      0.039700
     29 HAF1        7.8010   -0.9020    6.3080 hc        1 DE1      0.055700
     30 HAF2        7.8020    0.9020    6.3080 hc        1 DE1      0.055700
     31 HAD1       10.0900    0.9130    5.2430 h1        1 DE1      0.019700
     32 HAD2       10.0900   -0.9130    5.2430 h1        1 DE1      0.019700
     33 HAB        11.0660   -0.0010    7.1170 ho        1 DE1      0.398000
@<TRIPOS>BOND
     1    1    2 1   
     2    1   12 1   
     3    1   13 1   
     4    1   14 1   
     5    2    3 1   
     6    2   15 1   
     7    2   16 1   
     8    3    4 1   
     9    3   17 1   
    10    3   18 1   
    11    4    5 1   
    12    4   19 1   
    13    4   20 1   
    14    5    6 1   
    15    5   21 1   
    16    5   22 1   
    17    6    7 1   
    18    6   23 1   
    19    6   24 1   
    20    7    8 1   
    21    7   25 1   
    22    7   26 1   
    23    8    9 1   
    24    8   27 1   
    25    8   28 1   
    26    9   10 1   
    27    9   29 1   
    28    9   30 1   
    29   10   11 1   
    30   10   31 1   
    31   10   32 1   
    32   11   33 1   
@<TRIPOS>SUBSTRUCTURE
     1 DE1         1 TEMP              0 ****  ****    0 ROOT
