@<TRIPOS>MOLECULE
molecule
   33    32     1     0     0
SMALL
bcc


@<TRIPOS>ATOM
      1 CAA          0.0000     0.0000     0.0000 c3         1 DE1      -0.092100
      2 CAC          1.5310     0.0000     0.0000 c3         1 DE1      -0.084400
      3 CAE          2.0410     0.0000     1.4430 c3         1 DE1      -0.081400
      4 CAG          3.5700    -0.0000     1.4430 c3         1 DE1      -0.082400
      5 CAI          4.0800     0.0000     2.8850 c3         1 DE1      -0.081400
      6 CAK          5.6100    -0.0000     2.8850 c3         1 DE1      -0.082400
      7 CAJ          6.1210    -0.0000     4.3280 c3         1 DE1      -0.080400
      8 CAH          7.6500    -0.0000     4.3270 c3         1 DE1      -0.082400
      9 CAF          8.1600    -0.0000     5.7700 c3         1 DE1      -0.081400
     10 CAD          9.6900    -0.0000     5.7690 c3         1 DE1       0.140400
     11 OAB         10.1660    -0.0000     7.1170 oh         1 DE1      -0.612800
     12 HAA1        -0.3610    -0.8850     0.5110 hc         1 DE1       0.032367
     13 HAA2        -0.3610     0.8850     0.5110 hc         1 DE1       0.032367
     14 HAA3        -0.3610     0.0000    -1.0210 hc         1 DE1       0.032367
     15 HAC1         1.8920    -0.8850    -0.5110 hc         1 DE1       0.039700
     16 HAC2         1.8920     0.8850    -0.5110 hc         1 DE1       0.039700
     17 HAE1         1.6790    -0.8840     1.9530 hc         1 DE1       0.040700
     18 HAE2         1.6790     0.8840     1.9530 hc         1 DE1       0.040700
     19 HAG1         3.9310     0.8840     0.9320 hc         1 DE1       0.040700
     20 HAG2         3.9310    -0.8840     0.9320 hc         1 DE1       0.040700
     21 HAI1         3.7190     0.8850     3.3960 hc         1 DE1       0.041700
     22 HAI2         3.7190    -0.8850     3.3960 hc         1 DE1       0.041700
     23 HAK1         5.9720     0.8850     2.3750 hc         1 DE1       0.040700
     24 HAK2         5.9720    -0.8850     2.3750 hc         1 DE1       0.040700
     25 HAJ1         5.7600    -0.8850     4.8390 hc         1 DE1       0.043700
     26 HAJ2         5.7600     0.8850     4.8390 hc         1 DE1       0.043700
     27 HAH1         8.0110     0.8850     3.8170 hc         1 DE1       0.040700
     28 HAH2         8.0110    -0.8850     3.8170 hc         1 DE1       0.040700
     29 HAF1         7.7990    -0.8850     6.2810 hc         1 DE1       0.053700
     30 HAF2         7.7990     0.8850     6.2810 hc         1 DE1       0.053700
     31 HAD1        10.0510     0.8850     5.2590 h1         1 DE1       0.018700
     32 HAD2        10.0510    -0.8850     5.2590 h1         1 DE1       0.018700
     33 HAB         11.1090    -0.0000     7.1170 ho         1 DE1       0.401000
@<TRIPOS>BOND
     1     1     2 1
     2     1    12 1
     3     1    13 1
     4     1    14 1
     5     2     3 1
     6     2    15 1
     7     2    16 1
     8     3     4 1
     9     3    17 1
    10     3    18 1
    11     4     5 1
    12     4    19 1
    13     4    20 1
    14     5     6 1
    15     5    21 1
    16     5    22 1
    17     6     7 1
    18     6    23 1
    19     6    24 1
    20     7     8 1
    21     7    25 1
    22     7    26 1
    23     8     9 1
    24     8    27 1
    25     8    28 1
    26     9    10 1
    27     9    29 1
    28     9    30 1
    29    10    11 1
    30    10    31 1
    31    10    32 1
    32    11    33 1
@<TRIPOS>SUBSTRUCTURE
     1 DE1         1 TEMP              0 ****  ****    0 ROOT
