@<TRIPOS>MOLECULE
DE2
   15    14     1     0     0
SMALL
bcc


@<TRIPOS>ATOM
      1 O2          0.1190    0.3500    0.2380 o         1 DE2     -0.525100
      2 C2          1.3290    0.1680    0.0740 c         1 DE2      0.543100
      3 C1          1.9920    0.1880   -1.2600 c3        1 DE2     -0.200100
      4 C3          2.2340   -0.0820    1.2650 c3        1 DE2     -0.004900
      5 O3          1.7000    0.4590    2.4610 oh        1 DE2     -0.593800
      6 C4          2.4700   -1.5880    1.4520 c3        1 DE2      0.112400
      7 O5          3.3690   -1.8240    2.5120 oh        1 DE2     -0.591800
      8 H1          2.5990    1.1230   -1.3540 hc        1 DE2      0.070700
      9 H2          2.6730   -0.6910   -1.3650 hc        1 DE2      0.070700
     10 H3          1.2350    0.1680   -2.0810 hc        1 DE2      0.070700
     11 H4          3.2200    0.4470    1.1300 h1        1 DE2      0.102700
     12 H5          0.7460    0.2920    2.4590 ho        1 DE2      0.422000
     13 H6          2.9580   -2.0310    0.5450 h1        1 DE2      0.052700
     14 H7          1.4920   -2.1030    1.6540 h1        1 DE2      0.052700
     15 H8          3.0510   -1.3190    3.2730 ho        1 DE2      0.417000
@<TRIPOS>BOND
     1    1    2 2   
     2    2    3 1   
     3    2    4 1   
     4    3    8 1   
     5    3    9 1   
     6    3   10 1   
     7    4    5 1   
     8    4    6 1   
     9    4   11 1   
    10    5   12 1   
    11    6    7 1   
    12    6   13 1   
    13    6   14 1   
    14    7   15 1   
@<TRIPOS>SUBSTRUCTURE
     1 DE2         1 TEMP              0 ****  ****    0 ROOT
