@<TRIPOS>MOLECULE
molecule
   15    14     1     0     0
SMALL
bcc


@<TRIPOS>ATOM
      1 O2           0.0000     0.0000     0.0000 o          1 DE2      -0.486100
      2 C2           1.2070     0.0000     0.0000 c          1 DE2       0.534100
      3 C1           1.9610     0.0050    -1.3060 c3         1 DE2      -0.197100
      4 C3           1.9610     0.0000     1.3050 c3         1 DE2       0.054100
      5 O3           1.0720     0.3490     2.3680 oh         1 DE2      -0.569800
      6 C4           2.5390    -1.3930     1.5600 c3         1 DE2       0.142400
      7 O5           3.3500    -1.3650     2.7370 oh         1 DE2      -0.604800
      8 H1           2.0760    -1.0120    -1.6600 hc         1 DE2       0.061700
      9 H2           1.4100     0.5830    -2.0380 hc         1 DE2       0.061700
     10 H3           2.9380     0.4490    -1.1570 hc         1 DE2       0.061700
     11 H4           2.7680     0.7220     1.2570 h1         1 DE2       0.056700
     12 H5           1.2720     1.2190     2.6720 ho         1 DE2       0.408000
     13 H6           3.1420    -1.6950     0.7130 h1         1 DE2       0.034700
     14 H7           1.7290    -2.1000     1.6970 h1         1 DE2       0.034700
     15 H8           3.7230    -2.2190     2.8820 ho         1 DE2       0.407000
@<TRIPOS>BOND
     1     3     2 1
     2     1     2 2
     3     2     4 1
     4     4     5 1
     5     4     6 1
     6     6     7 1
     7     3     8 1
     8     3     9 1
     9     3    10 1
    10     4    11 1
    11     5    12 1
    12     6    13 1
    13     6    14 1
    14     7    15 1
@<TRIPOS>SUBSTRUCTURE
     1 DE2         1 TEMP              0 ****  ****    0 ROOT
