@<TRIPOS>MOLECULE
DE3
   31    31     1     0     0
SMALL
bcc


@<TRIPOS>ATOM
      1 CAA          0.0000     0.0000     0.0000 ca         1 DE3      -0.142600
      2 CAB          1.3950     0.0000     0.0000 ca         1 DE3      -0.046000
      3 CAC         -0.6920     0.0020     1.2130 ca         1 DE3      -0.122000
      4 CAD          2.0820     0.0000     1.1970 ca         1 DE3      -0.097300
      5 CAE          1.3910     0.0010     2.3960 ca         1 DE3      -0.086000
      6 CAF          0.0070     0.0030     2.4020 ca         1 DE3      -0.104000
      7 CAG          3.5900    -0.0000     1.1990 c3         1 DE3       0.065200
      8 CAH         -0.7420     0.0060    -1.2780 c          1 DE3       0.613700
      9 CAI         -3.4920    -0.9340     0.3050 c3         1 DE3      -0.022100
     10 CAJ         -2.4450    -0.9130    -2.7590 c3         1 DE3       0.032500
     11 CAK         -2.2840    -1.6260    -0.3290 c3         1 DE3       0.032500
     12 CAL         -1.6990    -1.9250    -3.6300 c3         1 DE3      -0.022100
     13 NAM         -1.7940    -0.8200    -1.4500 n          1 DE3      -0.149800
     14 OAN         -0.4050     0.7550    -2.1730 o          1 DE3      -0.643100
     15 HAB          1.9380    -0.0010    -0.9380 ha         1 DE3       0.120000
     16 HAC         -1.7750     0.0020     1.2200 ha         1 DE3       0.130000
     17 HAE          1.9350     0.0010     3.3320 ha         1 DE3       0.106000
     18 HAF         -0.5290     0.0030     3.3440 ha         1 DE3       0.103000
     19 HAG          3.9490    -0.1240     2.2130 hc         1 DE3       0.008700
     20 HAGA         3.9510     0.9400     0.8000 hc         1 DE3       0.008700
     21 HAGB         3.9520    -0.8160     0.5850 hc         1 DE3       0.008700
     22 HAI         -3.4890    -1.1100     1.3740 hc         1 DE3       0.011200
     23 HAIA        -4.4030    -1.3340    -0.1240 hc         1 DE3       0.011200
     24 HAJ         -2.3950     0.0660    -3.2200 h1         1 DE3       0.034450
     25 HAJA        -3.4810    -1.2140    -2.6630 h1         1 DE3       0.034450
     26 HAK         -2.5760    -2.6050    -0.6880 h1         1 DE3       0.034450
     27 HAL         -2.3360    -2.2370    -4.4490 hc         1 DE3       0.011200
     28 HALA        -1.4310    -2.7880    -3.0330 hc         1 DE3       0.011200
     29 HALB        -0.8000    -1.4680    -4.0270 hc         1 DE3       0.011200
     30 H16         -3.4400     0.1310     0.1140 hc         1 DE3       0.011200
     31 H17         -1.4990    -1.7310     0.4100 h1         1 DE3       0.034450
@<TRIPOS>BOND
     1     1     2 ar  
     2     1     3 ar  
     3     1     8 1   
     4     2     4 ar  
     5     2    15 1   
     6     3     6 ar  
     7     3    16 1   
     8     4     5 ar  
     9     4     7 1   
    10     5     6 ar  
    11     5    17 1   
    12     6    18 1   
    13     7    19 1   
    14     7    20 1   
    15     7    21 1   
    16     8    13 1   
    17     8    14 2   
    18     9    11 1   
    19     9    22 1   
    20     9    23 1   
    21     9    30 1   
    22    10    12 1   
    23    10    13 1   
    24    10    24 1   
    25    10    25 1   
    26    11    13 1   
    27    11    26 1   
    28    11    31 1   
    29    12    27 1   
    30    12    28 1   
    31    12    29 1   
@<TRIPOS>SUBSTRUCTURE
     1 DE3         1 TEMP              0 ****  ****    0 ROOT
