@<TRIPOS>MOLECULE
molecule
   18    18     1     0     0
SMALL
bcc


@<TRIPOS>ATOM
      1 C4           0.0000     0.0000     0.0000 c          1 DE5       0.630100
      2 C5           1.5070     0.0000     0.0000 c3         1 DE5       0.020800
      3 N1          -2.8060     0.0010     2.2300 nc         1 DE5      -0.697000
      4 N2          -0.6730     0.0000     1.1680 ns         1 DE5      -0.469400
      5 C3          -2.0630     0.0010     1.1680 cd         1 DE5       0.483300
      6 N3           1.9970     0.0070    -1.3840 nz         1 DE5      -0.794600
      7 C2          -4.1130     0.0010     2.0460 cc         1 DE5       0.392200
      8 C1          -4.4940     0.0010     0.7660 cd         1 DE5      -0.197400
      9 S1          -3.0430     0.0010    -0.2340 ss         1 DE5      -0.078300
     10 O1          -0.6060     0.0060    -1.0490 o          1 DE5      -0.583100
     11 H1           1.8680     0.8820     0.5150 hx         1 DE5       0.131200
     12 H2           1.8680    -0.8870     0.5060 hx         1 DE5       0.131200
     13 H3          -0.1730    -0.0230     2.0340 hn         1 DE5       0.355500
     14 H4           1.6630     0.8260    -1.8520 hn         1 DE5       0.470133
     15 H5           1.6630    -0.8080    -1.8600 hn         1 DE5       0.470133
     16 H7          -4.8200     0.0010     2.8670 h4         1 DE5       0.065100
     17 H8          -5.5150     0.0010     0.4060 h4         1 DE5       0.199000
     18 H33          2.9980     0.0060    -1.3840 hn         1 DE5       0.470133
@<TRIPOS>BOND
     1     7     3 1
     2     7     8 2
     3     3     5 2
     4     8     9 1
     5     5     4 1
     6     5     9 1
     7     4     1 1
     8     1     2 1
     9     1    10 2
    10     2     6 1
    11     2    11 1
    12     2    12 1
    13     4    13 1
    14     6    14 1
    15     6    15 1
    16     7    16 1
    17     8    17 1
    18    18     6 1
@<TRIPOS>SUBSTRUCTURE
     1 DE5         1 TEMP              0 ****  ****    0 ROOT
