@<TRIPOS>MOLECULE
DE5
   18    18     1     0     0
SMALL
bcc


@<TRIPOS>ATOM
      1 C4           0.0000     0.0000     0.0000 c          1 DE5       0.508100
      2 C5           1.5070     0.0000     0.0000 c3         1 DE5      -0.125200
      3 N1          -2.8060     0.0010     2.2300 nc         1 DE5      -0.555000
      4 N2          -0.6730     0.0000     1.1680 ns         1 DE5       0.039600
      5 C3          -2.0630     0.0010     1.1680 cd         1 DE5       0.313300
      6 N3           1.9970     0.0070    -1.3840 nz         1 DE5       0.114400
      7 C2          -4.1130     0.0010     2.0460 cc         1 DE5       0.367200
      8 C1          -4.4940     0.0010     0.7660 cd         1 DE5      -0.089400
      9 S1          -3.0430     0.0010    -0.2340 ss         1 DE5      -0.201300
     10 O1          -0.6060     0.0060    -1.0490 o          1 DE5      -0.619100
     11 H1           1.8680     0.8820     0.5150 hx         1 DE5       0.094200
     12 H2           1.8680    -0.8870     0.5060 hx         1 DE5       0.094200
     13 H3          -0.1730    -0.0230     2.0340 hn         1 DE5       0.177500
     14 H4           1.6630     0.8260    -1.8520 hn         1 DE5       0.229800
     15 H5           1.6630    -0.8080    -1.8600 hn         1 DE5       0.229800
     16 H7          -4.8200     0.0010     2.8670 h4         1 DE5       0.018100
     17 H8          -5.5150     0.0010     0.4060 h4         1 DE5       0.173000
     18 H33          2.9980     0.0060    -1.3840 hn         1 DE5       0.229800
@<TRIPOS>BOND
     1     1     2 1   
     2     1     4 1   
     3     1    10 2   
     4     2     6 1   
     5     2    11 1   
     6     2    12 1   
     7     3     5 2   
     8     3     7 1   
     9     4     5 1   
    10     4    13 1   
    11     5     9 1   
    12     6    14 1   
    13     6    15 1   
    14     6    18 1   
    15     7     8 2   
    16     7    16 1   
    17     8     9 1   
    18     8    17 1   
@<TRIPOS>SUBSTRUCTURE
     1 DE5         1 TEMP              0 ****  ****    0 ROOT
